@<TRIPOS>MOLECULE
*****
 34 37 0 0 0
SMALL
GASTEIGER

@<TRIPOS>ATOM
      1 C          62.4557   88.4511   11.5639 C.3     1  UNL1        0.1532
      2 O          59.8674   88.2960   11.4006 O.2     1  UNL1       -0.2731
      3 C          61.2261   87.9292   10.8815 C.2     1  UNL1        0.2438
      4 N          61.3551   87.0406    9.6800 N.am    1  UNL1       -0.2780
      5 C          60.1256   86.5187    8.9976 C.3     1  UNL1        0.0959
      6 C          60.2547   85.6300    7.7960 C.3     1  UNL1        0.0508
      7 C          61.6133   85.2633    7.2769 C.3     1  UNL1        0.1139
      8 O          61.7424   84.3746    6.0754 O.3     1  UNL1       -0.3843
      9 C          62.8430   85.7852    7.9594 C.3     1  UNL1        0.0508
     10 C          62.7139   86.6738    9.1609 C.3     1  UNL1        0.0959
     11 H          62.6813   84.2377    5.8739 H       1  UNL1        0.2103
     12 N          63.3608   87.5096   12.3017 N.am    1  UNL1       -0.2978
     13 C          62.8690   86.1468   12.6906 C.2     1  UNL1        0.2257
     14 O          61.4723   85.7257   12.3417 O.2     1  UNL1       -0.2748
     15 H          64.2775   87.7860   12.5307 H       1  UNL1        0.1498
     16 C          63.7741   85.2053   13.4284 C.3     1  UNL1        0.0884
     17 C          64.7450   84.6947   14.4514 C.3     1  UNL1        0.0135
     18 C          64.2782   86.1191   14.5059 C.3     1  UNL1        0.0135
     19 C          63.5844   83.9644   12.6072 C.ar    1  UNL1       -0.0040
     20 C          64.1976   83.8679   11.2417 C.ar    1  UNL1       -0.0021
     21 C          64.0079   82.6270   10.4204 C.ar    1  UNL1        0.0111
     22 C          63.2051   81.4828   10.9648 C.ar    1  UNL1        0.0585
     23 CL         63.0154   80.2420   10.1436 Cl      1  UNL1       -0.0822
     24 C          62.5919   81.5794   12.3303 C.ar    1  UNL1        0.0225
     25 C          62.7816   82.8203   13.1515 C.ar    1  UNL1        0.0550
     26 CL         62.1685   82.9169   14.5171 Cl      1  UNL1       -0.0825
     27 C          62.7803   89.9145   11.5085 C.3     1  UNL1        0.0553
     28 C          63.6991   90.5182   12.5291 C.ar    1  UNL1       -0.0200
     29 C          63.6712   90.0280   13.9464 C.ar    1  UNL1       -0.0037
     30 C          64.5900   90.6317   14.9669 C.ar    1  UNL1        0.0064
     31 C          65.5366   91.7255   14.5700 C.ar    1  UNL1        0.0345
     32 BR         66.4555   92.3291   15.5906 Br      1  UNL1       -0.0490
     33 C          65.5645   92.2156   13.1526 C.ar    1  UNL1        0.0064
     34 C          64.6457   91.6120   12.1322 C.ar    1  UNL1       -0.0037
@<TRIPOS>BOND
     1     2     3    2
     2     3     1    1
     3     1    27    1
     4    27    28    1
     5    28    29   ar
     6    29    30   ar
     7    30    31   ar
     8    31    32    1
     9    31    33   ar
    10    33    34   ar
    11     1    12    1
    12    12    13   am
    13    13    14    2
    14    13    16    1
    15    16    19    1
    16    19    20   ar
    17    20    21   ar
    18    21    22   ar
    19    22    23    1
    20    22    24   ar
    21    24    25   ar
    22    25    26    1
    23    16    17    1
    24    17    18    1
    25     3     4   am
    26     4     5    1
    27     5     6    1
    28     6     7    1
    29     7     8    1
    30     7     9    1
    31     9    10    1
    32    34    28   ar
    33    18    16    1
    34    10     4    1
    35    25    19   ar
    36    12    15    1
    37     8    11    1
@<TRIPOS>MOLECULE
*****
 34 37 0 0 0
SMALL
GASTEIGER

@<TRIPOS>ATOM
      1 C          62.4552   87.8513   11.3261 C.3     1  UNL1        0.1532
      2 O          62.3097   90.1408   10.1065 O.2     1  UNL1       -0.2731
      3 C          62.7705   89.3169   11.2722 C.2     1  UNL1        0.2438
      4 N          63.5466   89.9585   12.3839 N.am    1  UNL1       -0.2780
      5 C          63.8619   91.4239   12.3301 C.3     1  UNL1        0.0959
      6 C          64.6380   92.0655   13.4419 C.3     1  UNL1        0.0508
      7 C          65.0988   91.2416   14.6075 C.3     1  UNL1        0.1139
      8 O          65.8749   91.8832   15.7193 O.3     1  UNL1       -0.3843
      9 C          64.7835   89.7760   14.6614 C.3     1  UNL1        0.0508
     10 C          64.0074   89.1345   13.5496 C.3     1  UNL1        0.0959
     11 H          66.0934   91.2156   16.3882 H       1  UNL1        0.2103
     12 N          63.3717   86.9133   12.0543 N.am    1  UNL1       -0.2978
     13 C          62.8200   85.6784   12.7029 C.2     1  UNL1        0.2257
     14 O          61.3518   85.3816   12.6233 O.2     1  UNL1       -0.2748
     15 H          64.3353   87.1082   12.1065 H       1  UNL1        0.1498
     16 C          63.7364   84.7404   13.4311 C.3     1  UNL1        0.0884
     17 C          64.7125   84.2309   14.4497 C.3     1  UNL1        0.0135
     18 C          64.2266   85.6482   14.5201 C.3     1  UNL1        0.0135
     19 C          63.5646   83.5070   12.5951 C.ar    1  UNL1       -0.0040
     20 C          64.1932   83.4291   11.2354 C.ar    1  UNL1       -0.0021
     21 C          64.0214   82.1955   10.3992 C.ar    1  UNL1        0.0111
     22 C          63.2211   81.0400   10.9229 C.ar    1  UNL1        0.0585
     23 CL         63.0493   79.8065   10.0868 Cl      1  UNL1       -0.0822
     24 C          62.5925   81.1180   12.2827 C.ar    1  UNL1        0.0225
     25 C          62.7643   82.3515   13.1187 C.ar    1  UNL1        0.0550
     26 CL         62.1358   82.4294   14.4785 Cl      1  UNL1       -0.0825
     27 C          61.2236   87.3238   10.6518 C.3     1  UNL1        0.0553
     28 C          61.3434   86.5343    9.3820 C.ar    1  UNL1       -0.0200
     29 C          60.1643   86.4075    8.4636 C.ar    1  UNL1       -0.0037
     30 C          60.2842   85.6180    7.1939 C.ar    1  UNL1        0.0064
     31 C          61.5832   84.9552    6.8426 C.ar    1  UNL1        0.0345
     32 BR         61.7031   84.1657    5.5728 Br      1  UNL1       -0.0490
     33 C          62.7623   85.0820    7.7610 C.ar    1  UNL1        0.0064
     34 C          62.6424   85.8715    9.0307 C.ar    1  UNL1       -0.0037
@<TRIPOS>BOND
     1     2     3    2
     2     3     1    1
     3     1    27    1
     4    27    28    1
     5    28    29   ar
     6    29    30   ar
     7    30    31   ar
     8    31    32    1
     9    31    33   ar
    10    33    34   ar
    11     1    12    1
    12    12    13   am
    13    13    14    2
    14    13    16    1
    15    16    19    1
    16    19    20   ar
    17    20    21   ar
    18    21    22   ar
    19    22    23    1
    20    22    24   ar
    21    24    25   ar
    22    25    26    1
    23    16    17    1
    24    17    18    1
    25     3     4   am
    26     4     5    1
    27     5     6    1
    28     6     7    1
    29     7     8    1
    30     7     9    1
    31     9    10    1
    32    34    28   ar
    33    18    16    1
    34    10     4    1
    35    25    19   ar
    36    12    15    1
    37     8    11    1
@<TRIPOS>MOLECULE
*****
 34 37 0 0 0
SMALL
GASTEIGER

@<TRIPOS>ATOM
      1 C          64.0946   85.1592   13.4098 C.3     1  UNL1        0.1532
      2 O          62.9657   84.1326   15.5126 O.2     1  UNL1       -0.2731
      3 C          63.5068   85.3244   14.7800 C.2     1  UNL1        0.2438
      4 N          63.4602   86.6814   15.4175 N.am    1  UNL1       -0.2780
      5 C          62.8724   86.8466   16.7876 C.3     1  UNL1        0.0959
      6 C          62.8258   88.2036   17.4251 C.3     1  UNL1        0.0508
      7 C          63.3669   89.3954   16.6925 C.3     1  UNL1        0.1139
      8 O          63.3203   90.7523   17.3299 O.3     1  UNL1       -0.3843
      9 C          63.9547   89.2302   15.3223 C.3     1  UNL1        0.0508
     10 C          64.0013   87.8732   14.6848 C.3     1  UNL1        0.0959
     11 H          63.7076   91.4062   16.7272 H       1  UNL1        0.2103
     12 N          63.8834   86.2197   12.3703 N.am    1  UNL1       -0.2978
     13 C          62.5530   86.3480   11.6893 C.2     1  UNL1        0.2257
     14 O          61.4339   85.4158   12.0477 O.2     1  UNL1       -0.2748
     15 H          64.6179   86.8316   12.1350 H       1  UNL1        0.1498
     16 C          62.3418   87.4086   10.6497 C.3     1  UNL1        0.0884
     17 C          62.2156   88.7680   10.0284 C.3     1  UNL1        0.0135
     18 C          62.5134   88.6375   11.4927 C.3     1  UNL1        0.0135
     19 C          62.0969   86.5481    9.4457 C.ar    1  UNL1       -0.0040
     20 C          63.2099   85.7180    8.8783 C.ar    1  UNL1       -0.0021
     21 C          62.9650   84.8575    7.6743 C.ar    1  UNL1        0.0111
     22 C          61.6071   84.8272    7.0378 C.ar    1  UNL1        0.0585
     23 CL         61.3622   83.9667    5.8338 Cl      1  UNL1       -0.0822
     24 C          60.4941   85.6574    7.6052 C.ar    1  UNL1        0.0225
     25 C          60.7390   86.5178    8.8092 C.ar    1  UNL1        0.0550
     26 CL         59.6259   87.3480    9.3767 Cl      1  UNL1       -0.0825
     27 C          64.8936   83.9335   13.0792 C.3     1  UNL1        0.0553
     28 C          64.2832   82.8408   12.2525 C.ar    1  UNL1       -0.0200
     29 C          63.5444   81.7189   12.9199 C.ar    1  UNL1       -0.0037
     30 C          62.9341   80.6263   12.0931 C.ar    1  UNL1        0.0064
     31 C          63.0627   80.6555   10.5989 C.ar    1  UNL1        0.0345
     32 BR         62.4524   79.5627    9.7721 Br      1  UNL1       -0.0490
     33 C          63.8016   81.7773    9.9315 C.ar    1  UNL1        0.0064
     34 C          64.4118   82.8700   10.7583 C.ar    1  UNL1       -0.0037
@<TRIPOS>BOND
     1     2     3    2
     2     3     1    1
     3     1    27    1
     4    27    28    1
     5    28    29   ar
     6    29    30   ar
     7    30    31   ar
     8    31    32    1
     9    31    33   ar
    10    33    34   ar
    11     1    12    1
    12    12    13   am
    13    13    14    2
    14    13    16    1
    15    16    19    1
    16    19    20   ar
    17    20    21   ar
    18    21    22   ar
    19    22    23    1
    20    22    24   ar
    21    24    25   ar
    22    25    26    1
    23    16    17    1
    24    17    18    1
    25     3     4   am
    26     4     5    1
    27     5     6    1
    28     6     7    1
    29     7     8    1
    30     7     9    1
    31     9    10    1
    32    34    28   ar
    33    18    16    1
    34    10     4    1
    35    25    19   ar
    36    12    15    1
    37     8    11    1
@<TRIPOS>MOLECULE
*****
 34 37 0 0 0
SMALL
GASTEIGER

@<TRIPOS>ATOM
      1 C          63.4095   89.9455   14.4359 C.3     1  UNL1        0.1532
      2 O          63.1836   91.1997   16.7000 O.2     1  UNL1       -0.2731
      3 C          63.9797   90.8673   15.4729 C.2     1  UNL1        0.2438
      4 N          65.3458   91.4566   15.2827 N.am    1  UNL1       -0.2780
      5 C          65.9160   92.3784   16.3197 C.3     1  UNL1        0.0959
      6 C          67.2822   92.9678   16.1295 C.3     1  UNL1        0.0508
      7 C          68.0782   92.6354   14.9024 C.3     1  UNL1        0.1139
      8 O          69.4444   93.2247   14.7122 O.3     1  UNL1       -0.3843
      9 C          67.5081   91.7136   13.8654 C.3     1  UNL1        0.0508
     10 C          66.1419   91.1242   14.0556 C.3     1  UNL1        0.0959
     11 H          69.8184   92.9103   13.8743 H       1  UNL1        0.2103
     12 N          62.9267   88.5809   14.8294 N.am    1  UNL1       -0.2978
     13 C          63.8964   87.4401   14.9221 C.2     1  UNL1        0.2257
     14 O          65.3487   87.6639   14.6212 O.2     1  UNL1       -0.2748
     15 H          61.9735   88.4340   15.0269 H       1  UNL1        0.1498
     16 C          63.4136   86.0756   15.3157 C.3     1  UNL1        0.0884
     17 C          62.9058   84.9523   16.1703 C.3     1  UNL1        0.0135
     18 C          63.1741   86.2963   16.7800 C.3     1  UNL1        0.0135
     19 C          63.4853   85.3809   13.9881 C.ar    1  UNL1       -0.0040
     20 C          62.4508   85.6605   12.9386 C.ar    1  UNL1       -0.0021
     21 C          62.5225   84.9658   11.6110 C.ar    1  UNL1        0.0111
     22 C          63.6288   83.9918   11.3331 C.ar    1  UNL1        0.0585
     23 CL         63.7005   83.2971   10.0055 Cl      1  UNL1       -0.0822
     24 C          64.6633   83.7122   12.3827 C.ar    1  UNL1        0.0225
     25 C          64.5916   84.4069   13.7102 C.ar    1  UNL1        0.0550
     26 CL         65.6261   84.1273   14.7598 Cl      1  UNL1       -0.0825
     27 C          63.3222   90.3882   13.0054 C.3     1  UNL1        0.0553
     28 C          62.4233   89.6620   12.0490 C.ar    1  UNL1       -0.0200
     29 C          63.0137   88.8347   10.9459 C.ar    1  UNL1       -0.0037
     30 C          62.1148   88.1086    9.9896 C.ar    1  UNL1        0.0064
     31 C          60.6254   88.2097   10.1364 C.ar    1  UNL1        0.0345
     32 BR         59.7265   87.4835    9.1800 Br      1  UNL1       -0.0490
     33 C          60.0350   89.0370   11.2395 C.ar    1  UNL1        0.0064
     34 C          60.9339   89.7632   12.1958 C.ar    1  UNL1       -0.0037
@<TRIPOS>BOND
     1     2     3    2
     2     3     1    1
     3     1    27    1
     4    27    28    1
     5    28    29   ar
     6    29    30   ar
     7    30    31   ar
     8    31    32    1
     9    31    33   ar
    10    33    34   ar
    11     1    12    1
    12    12    13   am
    13    13    14    2
    14    13    16    1
    15    16    19    1
    16    19    20   ar
    17    20    21   ar
    18    21    22   ar
    19    22    23    1
    20    22    24   ar
    21    24    25   ar
    22    25    26    1
    23    16    17    1
    24    17    18    1
    25     3     4   am
    26     4     5    1
    27     5     6    1
    28     6     7    1
    29     7     8    1
    30     7     9    1
    31     9    10    1
    32    34    28   ar
    33    18    16    1
    34    10     4    1
    35    25    19   ar
    36    12    15    1
    37     8    11    1
@<TRIPOS>MOLECULE
*****
 34 37 0 0 0
SMALL
GASTEIGER

@<TRIPOS>ATOM
      1 C          62.1690   88.2563   11.1807 C.3     1  UNL1        0.1532
      2 O          59.6116   88.1319   10.7394 O.2     1  UNL1       -0.2731
      3 C          61.0126   87.7341   10.3805 C.2     1  UNL1        0.2438
      4 N          61.2574   86.8139    9.2214 N.am    1  UNL1       -0.2780
      5 C          60.1011   86.2917    8.4212 C.3     1  UNL1        0.0959
      6 C          60.3459   85.3716    7.2621 C.3     1  UNL1        0.0508
      7 C          61.7469   84.9737    6.9032 C.3     1  UNL1        0.1139
      8 O          61.9916   84.0536    5.7441 O.3     1  UNL1       -0.3843
      9 C          62.9032   85.4960    7.7034 C.3     1  UNL1        0.0508
     10 C          62.6585   86.4161    8.8625 C.3     1  UNL1        0.0959
     11 H          62.9446   83.8991    5.6496 H       1  UNL1        0.2103
     12 N          63.1027   87.2999   11.8615 N.am    1  UNL1       -0.2978
     13 C          62.6410   85.9131   12.1990 C.2     1  UNL1        0.2257
     14 O          61.2457   85.4828   11.8556 O.2     1  UNL1       -0.2748
     15 H          64.0185   87.5824   12.0868 H       1  UNL1        0.1498
     16 C          63.5747   84.9568   12.8798 C.3     1  UNL1        0.0884
     17 C          64.5747   83.8541   13.0650 C.3     1  UNL1        0.0135
     18 C          64.0897   84.2034   11.6892 C.3     1  UNL1        0.0135
     19 C          63.3840   85.3778   14.3068 C.ar    1  UNL1       -0.0040
     20 C          64.0705   86.6071   14.8240 C.ar    1  UNL1       -0.0021
     21 C          63.8798   87.0283   16.2511 C.ar    1  UNL1        0.0111
     22 C          63.0027   86.2201   17.1607 C.ar    1  UNL1        0.0585
     23 CL         62.8120   86.6412   18.5877 Cl      1  UNL1       -0.0822
     24 C          62.3162   84.9908   16.6434 C.ar    1  UNL1        0.0225
     25 C          62.5069   84.5697   15.2164 C.ar    1  UNL1        0.0550
     26 CL         61.8204   83.3404   14.6991 Cl      1  UNL1       -0.0825
     27 C          62.3915   89.7349   11.3000 C.3     1  UNL1        0.0553
     28 C          63.4691   90.2608   12.2013 C.ar    1  UNL1       -0.0200
     29 C          63.7094   89.6201   13.5361 C.ar    1  UNL1       -0.0037
     30 C          64.7870   90.1460   14.4373 C.ar    1  UNL1        0.0064
     31 C          65.6242   91.3127   14.0038 C.ar    1  UNL1        0.0345
     32 BR         66.7018   91.8386   14.9051 Br      1  UNL1       -0.0490
     33 C          65.3839   91.9534   12.6690 C.ar    1  UNL1        0.0064
     34 C          64.3064   91.4274   11.7677 C.ar    1  UNL1       -0.0037
@<TRIPOS>BOND
     1     2     3    2
     2     3     1    1
     3     1    27    1
     4    27    28    1
     5    28    29   ar
     6    29    30   ar
     7    30    31   ar
     8    31    32    1
     9    31    33   ar
    10    33    34   ar
    11     1    12    1
    12    12    13   am
    13    13    14    2
    14    13    16    1
    15    16    19    1
    16    19    20   ar
    17    20    21   ar
    18    21    22   ar
    19    22    23    1
    20    22    24   ar
    21    24    25   ar
    22    25    26    1
    23    16    17    1
    24    17    18    1
    25     3     4   am
    26     4     5    1
    27     5     6    1
    28     6     7    1
    29     7     8    1
    30     7     9    1
    31     9    10    1
    32    34    28   ar
    33    18    16    1
    34    10     4    1
    35    25    19   ar
    36    12    15    1
    37     8    11    1
@<TRIPOS>MOLECULE
*****
 34 37 0 0 0
SMALL
GASTEIGER

@<TRIPOS>ATOM
      1 C          62.3228   87.6462   11.2792 C.3     1  UNL1        0.1532
      2 O          62.1135   89.8393    9.9020 O.2     1  UNL1       -0.2731
      3 C          62.6200   89.1066   11.1089 C.2     1  UNL1        0.2438
      4 N          63.4236   89.8343   12.1456 N.am    1  UNL1       -0.2780
      5 C          63.7208   91.2946   11.9754 C.3     1  UNL1        0.0959
      6 C          64.5245   92.0223   13.0120 C.3     1  UNL1        0.0508
      7 C          65.0309   91.2896   14.2189 C.3     1  UNL1        0.1139
      8 O          65.8345   92.0173   15.2556 O.3     1  UNL1       -0.3843
      9 C          64.7337   89.8292   14.3892 C.3     1  UNL1        0.0508
     10 C          63.9301   89.1015   13.3526 C.3     1  UNL1        0.0959
     11 H          66.0814   91.4021   15.9638 H       1  UNL1        0.2103
     12 N          63.2176   86.7928   12.1283 N.am    1  UNL1       -0.2978
     13 C          62.9101   85.3363   12.3133 C.2     1  UNL1        0.2257
     14 O          61.7079   84.7333   11.6493 O.2     1  UNL1       -0.2748
     15 H          64.0067   87.1886   12.5641 H       1  UNL1        0.1498
     16 C          63.8050   84.4829   13.1624 C.3     1  UNL1        0.0884
     17 C          64.8009   83.4274   13.5420 C.3     1  UNL1        0.0135
     18 C          64.4070   83.6048   12.1056 C.3     1  UNL1        0.0135
     19 C          63.5138   85.0644   14.5141 C.ar    1  UNL1       -0.0040
     20 C          64.2373   86.2959   14.9723 C.ar    1  UNL1       -0.0021
     21 C          63.9461   86.8775   16.3240 C.ar    1  UNL1        0.0111
     22 C          62.9314   86.2276   17.2173 C.ar    1  UNL1        0.0585
     23 CL         62.6402   86.8092   18.5690 Cl      1  UNL1       -0.0822
     24 C          62.2079   84.9962   16.7590 C.ar    1  UNL1        0.0225
     25 C          62.4991   84.4146   15.4074 C.ar    1  UNL1        0.0550
     26 CL         61.7756   83.1831   14.9491 Cl      1  UNL1       -0.0825
     27 C          61.1308   87.0393   10.6005 C.3     1  UNL1        0.0553
     28 C          61.2946   86.3320    9.2878 C.ar    1  UNL1       -0.0200
     29 C          62.6345   85.7862    8.8920 C.ar    1  UNL1       -0.0037
     30 C          62.7982   85.0790    7.5794 C.ar    1  UNL1        0.0064
     31 C          61.6220   84.9177    6.6625 C.ar    1  UNL1        0.0345
     32 BR         61.7858   84.2104    5.3498 Br      1  UNL1       -0.0490
     33 C          60.2821   85.4635    7.0583 C.ar    1  UNL1        0.0064
     34 C          60.1184   86.1707    8.3709 C.ar    1  UNL1       -0.0037
@<TRIPOS>BOND
     1     2     3    2
     2     3     1    1
     3     1    27    1
     4    27    28    1
     5    28    29   ar
     6    29    30   ar
     7    30    31   ar
     8    31    32    1
     9    31    33   ar
    10    33    34   ar
    11     1    12    1
    12    12    13   am
    13    13    14    2
    14    13    16    1
    15    16    19    1
    16    19    20   ar
    17    20    21   ar
    18    21    22   ar
    19    22    23    1
    20    22    24   ar
    21    24    25   ar
    22    25    26    1
    23    16    17    1
    24    17    18    1
    25     3     4   am
    26     4     5    1
    27     5     6    1
    28     6     7    1
    29     7     8    1
    30     7     9    1
    31     9    10    1
    32    34    28   ar
    33    18    16    1
    34    10     4    1
    35    25    19   ar
    36    12    15    1
    37     8    11    1
@<TRIPOS>MOLECULE
*****
 34 37 0 0 0
SMALL
GASTEIGER

@<TRIPOS>ATOM
      1 C          63.9770   86.8586   14.1545 C.3     1  UNL1        0.1532
      2 O          62.7374   87.2900   16.3967 O.2     1  UNL1       -0.2731
      3 C          63.6055   87.7820   15.2768 C.2     1  UNL1        0.2438
      4 N          64.1022   89.1974   15.2790 N.am    1  UNL1       -0.2780
      5 C          63.7308   90.1208   16.4012 C.3     1  UNL1        0.0959
      6 C          64.2275   91.5361   16.4035 C.3     1  UNL1        0.0508
      7 C          65.0956   92.0281   15.2836 C.3     1  UNL1        0.1139
      8 O          65.5923   93.4435   15.2858 O.3     1  UNL1       -0.3843
      9 C          65.4670   91.1047   14.1613 C.3     1  UNL1        0.0508
     10 C          64.9703   89.6893   14.1590 C.3     1  UNL1        0.0959
     11 H          66.1357   93.5967   14.4971 H       1  UNL1        0.2103
     12 N          63.5788   87.1908   12.7470 N.am    1  UNL1       -0.2978
     13 C          62.4679   86.4323   12.0829 C.2     1  UNL1        0.2257
     14 O          61.7554   85.3417   12.8264 O.2     1  UNL1       -0.2748
     15 H          64.0465   87.9065   12.2590 H       1  UNL1        0.1498
     16 C          62.0698   86.7645   10.6754 C.3     1  UNL1        0.0884
     17 C          61.9640   86.6741    9.1819 C.3     1  UNL1        0.0135
     18 C          62.7734   85.6633    9.9389 C.3     1  UNL1        0.0135
     19 C          61.2279   87.9809   10.9231 C.ar    1  UNL1       -0.0040
     20 C          59.8309   87.8318   11.4485 C.ar    1  UNL1       -0.0021
     21 C          58.9889   89.0483   11.6961 C.ar    1  UNL1        0.0111
     22 C          59.5439   90.4138   11.4184 C.ar    1  UNL1        0.0585
     23 CL         58.7020   91.6303   11.6660 Cl      1  UNL1       -0.0822
     24 C          60.9410   90.5629   10.8929 C.ar    1  UNL1        0.0225
     25 C          61.7829   89.3464   10.6453 C.ar    1  UNL1        0.0550
     26 CL         63.1800   89.4955   10.1198 Cl      1  UNL1       -0.0825
     27 C          64.7465   85.6031   14.4398 C.3     1  UNL1        0.0553
     28 C          64.1388   84.2656   14.1365 C.ar    1  UNL1       -0.0200
     29 C          64.5646   83.5082   12.9138 C.ar    1  UNL1       -0.0037
     30 C          63.9569   82.1708   12.6107 C.ar    1  UNL1        0.0064
     31 C          62.9235   81.5908   13.5302 C.ar    1  UNL1        0.0345
     32 BR         62.3158   80.2533   13.2269 Br      1  UNL1       -0.0490
     33 C          62.4977   82.3481   14.7529 C.ar    1  UNL1        0.0064
     34 C          63.1054   83.6856   15.0560 C.ar    1  UNL1       -0.0037
@<TRIPOS>BOND
     1     2     3    2
     2     3     1    1
     3     1    27    1
     4    27    28    1
     5    28    29   ar
     6    29    30   ar
     7    30    31   ar
     8    31    32    1
     9    31    33   ar
    10    33    34   ar
    11     1    12    1
    12    12    13   am
    13    13    14    2
    14    13    16    1
    15    16    19    1
    16    19    20   ar
    17    20    21   ar
    18    21    22   ar
    19    22    23    1
    20    22    24   ar
    21    24    25   ar
    22    25    26    1
    23    16    17    1
    24    17    18    1
    25     3     4   am
    26     4     5    1
    27     5     6    1
    28     6     7    1
    29     7     8    1
    30     7     9    1
    31     9    10    1
    32    34    28   ar
    33    18    16    1
    34    10     4    1
    35    25    19   ar
    36    12    15    1
    37     8    11    1
@<TRIPOS>MOLECULE
*****
 34 37 0 0 0
SMALL
GASTEIGER

@<TRIPOS>ATOM
      1 C          62.4021   87.7840   11.2344 C.3     1  UNL1        0.1532
      2 O          62.1519   85.5382    9.9522 O.2     1  UNL1       -0.2731
      3 C          61.8296   86.9963   10.0934 C.2     1  UNL1        0.2438
      4 N          60.9347   87.6668    9.0936 N.am    1  UNL1       -0.2780
      5 C          60.3622   86.8792    7.9526 C.3     1  UNL1        0.0959
      6 C          59.4673   87.5497    6.9528 C.3     1  UNL1        0.0508
      7 C          59.1449   89.0078    7.0939 C.3     1  UNL1        0.1139
      8 O          58.2500   89.6783    6.0941 O.3     1  UNL1       -0.3843
      9 C          59.7175   89.7955    8.2349 C.3     1  UNL1        0.0508
     10 C          60.6123   89.1250    9.2347 C.3     1  UNL1        0.0959
     11 H          58.1452   90.6133    6.3299 H       1  UNL1        0.2103
     12 N          63.3656   87.1362   12.1841 N.am    1  UNL1       -0.2978
     13 C          62.9408   85.9404   12.9839 C.2     1  UNL1        0.2257
     14 O          61.5526   85.3924   12.8340 O.2     1  UNL1       -0.2748
     15 H          64.2768   87.4959   12.2825 H       1  UNL1        0.1498
     16 C          63.9044   85.2926   13.9336 C.3     1  UNL1        0.0884
     17 C          64.9821   85.1462   14.9666 C.3     1  UNL1        0.0135
     18 C          64.5678   86.5114   14.5034 C.3     1  UNL1        0.0135
     19 C          63.5757   83.8488   13.6938 C.ar    1  UNL1       -0.0040
     20 C          64.1580   83.1336   12.5109 C.ar    1  UNL1       -0.0021
     21 C          63.8293   81.6898   12.2710 C.ar    1  UNL1        0.0111
     22 C          62.9183   80.9614   13.2140 C.ar    1  UNL1        0.0585
     23 CL         62.5895   79.5176   12.9742 Cl      1  UNL1       -0.0822
     24 C          62.3359   81.6766   14.3970 C.ar    1  UNL1        0.0225
     25 C          62.6646   83.1204   14.6368 C.ar    1  UNL1        0.0550
     26 CL         62.0823   83.8357   15.8198 Cl      1  UNL1       -0.0825
     27 C          62.0111   89.2195   11.4256 C.3     1  UNL1        0.0553
     28 C          63.0656   90.2579   11.6701 C.ar    1  UNL1       -0.0200
     29 C          63.5064   91.1567   10.5531 C.ar    1  UNL1       -0.0037
     30 C          64.5608   92.1951   10.7976 C.ar    1  UNL1        0.0064
     31 C          65.1746   92.3346   12.1592 C.ar    1  UNL1        0.0345
     32 BR         66.2291   93.3731   12.4037 Br      1  UNL1       -0.0490
     33 C          64.7338   91.4358   13.2762 C.ar    1  UNL1        0.0064
     34 C          63.6793   90.3975   13.0317 C.ar    1  UNL1       -0.0037
@<TRIPOS>BOND
     1     2     3    2
     2     3     1    1
     3     1    27    1
     4    27    28    1
     5    28    29   ar
     6    29    30   ar
     7    30    31   ar
     8    31    32    1
     9    31    33   ar
    10    33    34   ar
    11     1    12    1
    12    12    13   am
    13    13    14    2
    14    13    16    1
    15    16    19    1
    16    19    20   ar
    17    20    21   ar
    18    21    22   ar
    19    22    23    1
    20    22    24   ar
    21    24    25   ar
    22    25    26    1
    23    16    17    1
    24    17    18    1
    25     3     4   am
    26     4     5    1
    27     5     6    1
    28     6     7    1
    29     7     8    1
    30     7     9    1
    31     9    10    1
    32    34    28   ar
    33    18    16    1
    34    10     4    1
    35    25    19   ar
    36    12    15    1
    37     8    11    1
@<TRIPOS>MOLECULE
*****
 34 37 0 0 0
SMALL
GASTEIGER

@<TRIPOS>ATOM
      1 C          63.6923   90.0107   13.5116 C.3     1  UNL1        0.1532
      2 O          64.0048   91.6493   11.5198 O.2     1  UNL1       -0.2731
      3 C          64.3598   91.2117   12.9099 C.2     1  UNL1        0.2438
      4 N          65.3823   91.9751   13.6985 N.am    1  UNL1       -0.2780
      5 C          66.0498   93.1761   13.0969 C.3     1  UNL1        0.0959
      6 C          67.0723   93.9395   13.8854 C.3     1  UNL1        0.0508
      7 C          67.4272   93.5019   15.2755 C.3     1  UNL1        0.1139
      8 O          68.4497   94.2653   16.0640 O.3     1  UNL1       -0.3843
      9 C          66.7597   92.3008   15.8772 C.3     1  UNL1        0.0508
     10 C          65.7372   91.5374   15.0887 C.3     1  UNL1        0.0959
     11 H          68.5601   93.8530   16.9351 H       1  UNL1        0.2103
     12 N          62.2571   89.7121   13.1933 N.am    1  UNL1       -0.2978
     13 C          61.8725   89.2626   11.8148 C.2     1  UNL1        0.2257
     14 O          62.9230   89.1116   10.7548 O.2     1  UNL1       -0.2748
     15 H          61.5677   89.8112   13.8890 H       1  UNL1        0.1498
     16 C          60.4374   88.9640   11.4964 C.3     1  UNL1        0.0884
     17 C          58.9397   89.0109   11.5631 C.3     1  UNL1        0.0135
     18 C          59.7585   89.8547   12.4944 C.3     1  UNL1        0.0135
     19 C          60.6179   87.9697   10.3879 C.ar    1  UNL1       -0.0040
     20 C          61.1380   86.5957   10.6904 C.ar    1  UNL1       -0.0021
     21 C          61.3184   85.6013    9.5818 C.ar    1  UNL1        0.0111
     22 C          60.9789   85.9811    8.1710 C.ar    1  UNL1        0.0585
     23 CL         61.1594   84.9868    7.0625 Cl      1  UNL1       -0.0822
     24 C          60.4588   87.3552    7.8686 C.ar    1  UNL1        0.0225
     25 C          60.2783   88.3495    8.9771 C.ar    1  UNL1        0.0550
     26 CL         59.7583   89.7236    8.6748 Cl      1  UNL1       -0.0825
     27 C          64.4598   89.1082   14.4316 C.3     1  UNL1        0.0553
     28 C          64.0753   87.6638   14.5585 C.ar    1  UNL1       -0.0200
     29 C          63.8831   86.8280   13.3279 C.ar    1  UNL1       -0.0037
     30 C          63.4986   85.3837   13.4548 C.ar    1  UNL1        0.0064
     31 C          63.3063   84.7753   14.8123 C.ar    1  UNL1        0.0345
     32 BR         62.9218   83.3309   14.9392 Br      1  UNL1       -0.0490
     33 C          63.4985   85.6111   16.0429 C.ar    1  UNL1        0.0064
     34 C          63.8830   87.0554   15.9160 C.ar    1  UNL1       -0.0037
@<TRIPOS>BOND
     1     2     3    2
     2     3     1    1
     3     1    27    1
     4    27    28    1
     5    28    29   ar
     6    29    30   ar
     7    30    31   ar
     8    31    32    1
     9    31    33   ar
    10    33    34   ar
    11     1    12    1
    12    12    13   am
    13    13    14    2
    14    13    16    1
    15    16    19    1
    16    19    20   ar
    17    20    21   ar
    18    21    22   ar
    19    22    23    1
    20    22    24   ar
    21    24    25   ar
    22    25    26    1
    23    16    17    1
    24    17    18    1
    25     3     4   am
    26     4     5    1
    27     5     6    1
    28     6     7    1
    29     7     8    1
    30     7     9    1
    31     9    10    1
    32    34    28   ar
    33    18    16    1
    34    10     4    1
    35    25    19   ar
    36    12    15    1
    37     8    11    1
