@<TRIPOS>MOLECULE
*****
 27 29 0 0 0
SMALL
GASTEIGER

@<TRIPOS>ATOM
      1 C          66.1448   92.2801   12.2346 C.2     1  UNL1       -0.0024
      2 C          64.8042   91.6213   12.0981 C.2     1  UNL1       -0.0246
      3 C          65.8923   95.2114   11.6483 C.3     1  UNL1        0.0310
      4 C          66.6931   94.3304   10.7360 C.ar    1  UNL1       -0.0218
      5 C          67.3677   94.9150    9.5305 C.ar    1  UNL1       -0.0043
      6 C          68.1686   94.0339    8.6182 C.ar    1  UNL1       -0.0003
      7 C          68.2948   92.5683    8.9113 C.ar    1  UNL1       -0.0000
      8 C          67.6203   91.9837   10.1167 C.ar    1  UNL1       -0.0003
      9 C          66.8194   92.8648   11.0291 C.ar    1  UNL1       -0.0042
     10 C          66.8109   92.3543   13.5765 C.ar    1  UNL1        0.0272
     11 C          66.0492   92.8620   14.7649 C.ar    1  UNL1        0.0022
     12 C          66.7153   92.9362   16.1068 C.ar    1  UNL1        0.0001
     13 C          68.1431   92.5027   16.2604 C.ar    1  UNL1        0.0023
     14 C          68.9047   91.9951   15.0721 C.ar    1  UNL1        0.0296
     15 C          68.2386   91.9209   13.7301 C.ar    1  UNL1        0.1401
     16 F          69.0004   91.4132   12.5418 F       1  UNL1       -0.2042
     17 C          64.1381   91.5471   10.7562 C.3     1  UNL1        0.0433
     18 C          62.6590   91.3145   10.6649 C.3     1  UNL1        0.0768
     19 N          62.1308   89.9316   10.4232 N.3     1  UNL1       -0.2721
     20 C          62.6371   88.7816   11.2423 C.3     1  UNL1        0.0721
     21 C          62.1089   87.3986   11.0006 C.3     1  UNL1        0.0177
     22 C          61.0744   87.1656    9.9397 C.3     1  UNL1        0.0084
     23 C          60.5681   88.3157    9.1205 C.3     1  UNL1        0.0525
     24 C          61.0963   89.6987    9.3622 C.3     1  UNL1        0.0776
     25 C          59.5336   88.0827    8.0596 C.2     1  UNL1        0.0513
     26 O          59.3706   89.0693    6.9414 O.co2   1  UNL1       -0.5491
     27 O          58.6621   86.8632    8.1167 O.co2   1  UNL1       -0.5491
@<TRIPOS>UNITY_ATOM_ATTR
26 1
charge -1
@<TRIPOS>BOND
     1     3     4    1
     2     4     5   ar
     3     5     6   ar
     4     6     7   ar
     5     7     8   ar
     6     8     9   ar
     7     9     1    1
     8     1     2    2
     9     2    17    1
    10    17    18    1
    11    18    19    1
    12    19    20    1
    13    20    21    1
    14    21    22    1
    15    22    23    1
    16    23    25    1
    17    25    26   ar
    18    25    27   ar
    19    23    24    1
    20     1    10    1
    21    10    11   ar
    22    11    12   ar
    23    12    13   ar
    24    13    14   ar
    25    14    15   ar
    26    15    16    1
    27     9     4   ar
    28    24    19    1
    29    15    10   ar
@<TRIPOS>MOLECULE
*****
 27 29 0 0 0
SMALL
GASTEIGER

@<TRIPOS>ATOM
      1 C          62.3339   86.6857   11.1267 C.2     1  UNL1       -0.0024
      2 C          62.8733   88.0182   11.5550 C.2     1  UNL1       -0.0246
      3 C          63.3001   85.4254    8.5815 C.3     1  UNL1        0.0310
      4 C          61.9023   85.9625    8.6689 C.ar    1  UNL1       -0.0218
      5 C          60.9876   85.8694    7.4838 C.ar    1  UNL1       -0.0043
      6 C          59.5898   86.4065    7.5712 C.ar    1  UNL1       -0.0003
      7 C          59.1067   87.0367    8.8438 C.ar    1  UNL1       -0.0000
      8 C          60.0214   87.1297   10.0289 C.ar    1  UNL1       -0.0003
      9 C          61.4192   86.5926    9.9415 C.ar    1  UNL1       -0.0042
     10 C          62.7091   85.4462   11.8837 C.ar    1  UNL1        0.0272
     11 C          62.2844   84.1001   11.3761 C.ar    1  UNL1        0.0022
     12 C          62.6596   82.8606   12.1331 C.ar    1  UNL1        0.0001
     13 C          63.4595   82.9673   13.3975 C.ar    1  UNL1        0.0023
     14 C          63.8842   84.3134   13.9050 C.ar    1  UNL1        0.0296
     15 C          63.5090   85.5529   13.1481 C.ar    1  UNL1        0.1401
     16 F          63.9337   86.8991   13.6556 F       1  UNL1       -0.2042
     17 C          62.4981   89.2576   10.7980 C.3     1  UNL1        0.0433
     18 C          62.4914   90.5873   11.4924 C.3     1  UNL1        0.0768
     19 N          63.4762   90.8656   12.5891 N.3     1  UNL1       -0.2721
     20 C          63.2705   90.2707   13.9506 C.3     1  UNL1        0.0721
     21 C          64.2553   90.5490   15.0473 C.3     1  UNL1        0.0177
     22 C          65.4458   91.4223   14.7825 C.3     1  UNL1        0.0084
     23 C          65.6515   92.0173   13.4209 C.3     1  UNL1        0.0525
     24 C          64.6667   91.7390   12.3242 C.3     1  UNL1        0.0776
     25 C          66.8419   92.8906   13.1562 C.2     1  UNL1        0.0513
     26 O          68.0108   92.8705   14.0961 O.co2   1  UNL1       -0.5491
     27 O          66.8636   93.7840   11.9514 O.co2   1  UNL1       -0.5491
@<TRIPOS>UNITY_ATOM_ATTR
26 1
charge -1
@<TRIPOS>BOND
     1     3     4    1
     2     4     5   ar
     3     5     6   ar
     4     6     7   ar
     5     7     8   ar
     6     8     9   ar
     7     9     1    1
     8     1     2    2
     9     2    17    1
    10    17    18    1
    11    18    19    1
    12    19    20    1
    13    20    21    1
    14    21    22    1
    15    22    23    1
    16    23    25    1
    17    25    26   ar
    18    25    27   ar
    19    23    24    1
    20     1    10    1
    21    10    11   ar
    22    11    12   ar
    23    12    13   ar
    24    13    14   ar
    25    14    15   ar
    26    15    16    1
    27     9     4   ar
    28    24    19    1
    29    15    10   ar
@<TRIPOS>MOLECULE
*****
 27 29 0 0 0
SMALL
GASTEIGER

@<TRIPOS>ATOM
      1 C          65.9788   92.8148   12.2436 C.2     1  UNL1       -0.0024
      2 C          64.8544   91.8911   11.8796 C.2     1  UNL1       -0.0246
      3 C          68.6756   91.5019   12.3033 C.3     1  UNL1        0.0310
      4 C          68.0482   91.9848   13.5773 C.ar    1  UNL1       -0.0218
      5 C          68.7691   91.8113   14.8812 C.ar    1  UNL1       -0.0043
      6 C          68.1417   92.2942   16.1552 C.ar    1  UNL1       -0.0003
      7 C          66.7933   92.9506   16.1254 C.ar    1  UNL1       -0.0000
      8 C          66.0724   93.1242   14.8215 C.ar    1  UNL1       -0.0003
      9 C          66.6998   92.6412   13.5475 C.ar    1  UNL1       -0.0042
     10 C          66.3822   93.9121   11.3038 C.ar    1  UNL1        0.0272
     11 C          66.1299   95.3445   11.6708 C.ar    1  UNL1        0.0022
     12 C          66.5333   96.4418   10.7310 C.ar    1  UNL1        0.0001
     13 C          67.1890   96.1067    9.4242 C.ar    1  UNL1        0.0023
     14 C          67.4413   94.6743    9.0572 C.ar    1  UNL1        0.0296
     15 C          67.0379   93.5771    9.9970 C.ar    1  UNL1        0.1401
     16 F          67.2903   92.1447    9.6300 F       1  UNL1       -0.2042
     17 C          64.4510   90.7938   12.8194 C.3     1  UNL1        0.0433
     18 C          63.0135   90.3752   12.9106 C.3     1  UNL1        0.0768
     19 N          62.3632   89.6695   11.7577 N.3     1  UNL1       -0.2721
     20 C          61.4385   90.4188   10.8448 C.3     1  UNL1        0.0721
     21 C          60.7882   89.7131    9.6919 C.3     1  UNL1        0.0177
     22 C          61.0627   88.2581    9.4519 C.3     1  UNL1        0.0084
     23 C          61.9875   87.5088   10.3648 C.3     1  UNL1        0.0525
     24 C          62.6378   88.2145   11.5177 C.3     1  UNL1        0.0776
     25 C          62.2620   86.0538   10.1248 C.2     1  UNL1        0.0513
     26 O          62.7422   85.5929    8.7805 O.co2   1  UNL1       -0.5491
     27 O          62.0564   85.0596   11.2290 O.co2   1  UNL1       -0.5491
@<TRIPOS>UNITY_ATOM_ATTR
26 1
charge -1
@<TRIPOS>BOND
     1     3     4    1
     2     4     5   ar
     3     5     6   ar
     4     6     7   ar
     5     7     8   ar
     6     8     9   ar
     7     9     1    1
     8     1     2    2
     9     2    17    1
    10    17    18    1
    11    18    19    1
    12    19    20    1
    13    20    21    1
    14    21    22    1
    15    22    23    1
    16    23    25    1
    17    25    26   ar
    18    25    27   ar
    19    23    24    1
    20     1    10    1
    21    10    11   ar
    22    11    12   ar
    23    12    13   ar
    24    13    14   ar
    25    14    15   ar
    26    15    16    1
    27     9     4   ar
    28    24    19    1
    29    15    10   ar
@<TRIPOS>MOLECULE
*****
 27 29 0 0 0
SMALL
GASTEIGER

@<TRIPOS>ATOM
      1 C          62.5068   86.3968   10.8870 C.2     1  UNL1       -0.0024
      2 C          62.6325   87.8487   11.2421 C.2     1  UNL1       -0.0246
      3 C          59.7568   87.0492    9.8809 C.3     1  UNL1        0.0310
      4 C          60.7263   86.3227    8.9964 C.ar    1  UNL1       -0.0218
      5 C          60.3207   85.9223    7.6089 C.ar    1  UNL1       -0.0043
      6 C          61.2902   85.1958    6.7244 C.ar    1  UNL1       -0.0003
      7 C          62.6651   84.8696    7.2274 C.ar    1  UNL1       -0.0000
      8 C          63.0706   85.2700    8.6149 C.ar    1  UNL1       -0.0003
      9 C          62.1012   85.9965    9.4994 C.ar    1  UNL1       -0.0042
     10 C          62.7867   85.3452   11.9193 C.ar    1  UNL1        0.0272
     11 C          62.3621   83.9267   11.6792 C.ar    1  UNL1        0.0022
     12 C          62.6420   82.8751   12.7116 C.ar    1  UNL1        0.0001
     13 C          63.3465   83.2420   13.9841 C.ar    1  UNL1        0.0023
     14 C          63.7710   84.6605   14.2241 C.ar    1  UNL1        0.0296
     15 C          63.4911   85.7121   13.1918 C.ar    1  UNL1        0.1401
     16 F          63.9157   87.1306   13.4319 F       1  UNL1       -0.2042
     17 C          62.3526   88.9003   10.2098 C.3     1  UNL1        0.0433
     18 C          62.4464   90.3525   10.5739 C.3     1  UNL1        0.0768
     19 N          63.3227   90.7853   11.7117 N.3     1  UNL1       -0.2721
     20 C          64.4913   91.6903   11.4562 C.3     1  UNL1        0.0721
     21 C          65.3676   92.1231   12.5941 C.3     1  UNL1        0.0177
     22 C          65.0753   91.6510   13.9875 C.3     1  UNL1        0.0084
     23 C          63.9066   90.7460   14.2431 C.3     1  UNL1        0.0525
     24 C          63.0303   90.3132   13.1052 C.3     1  UNL1        0.0776
     25 C          63.6143   90.2739   15.6365 C.2     1  UNL1        0.0513
     26 O          63.4148   88.8119   15.9067 O.co2   1  UNL1       -0.5491
     27 O          63.5215   91.2637   16.7597 O.co2   1  UNL1       -0.5491
@<TRIPOS>UNITY_ATOM_ATTR
26 1
charge -1
@<TRIPOS>BOND
     1     3     4    1
     2     4     5   ar
     3     5     6   ar
     4     6     7   ar
     5     7     8   ar
     6     8     9   ar
     7     9     1    1
     8     1     2    2
     9     2    17    1
    10    17    18    1
    11    18    19    1
    12    19    20    1
    13    20    21    1
    14    21    22    1
    15    22    23    1
    16    23    25    1
    17    25    26   ar
    18    25    27   ar
    19    23    24    1
    20     1    10    1
    21    10    11   ar
    22    11    12   ar
    23    12    13   ar
    24    13    14   ar
    25    14    15   ar
    26    15    16    1
    27     9     4   ar
    28    24    19    1
    29    15    10   ar
@<TRIPOS>MOLECULE
*****
 27 29 0 0 0
SMALL
GASTEIGER

@<TRIPOS>ATOM
      1 C          62.5850   87.0800   11.3992 C.2     1  UNL1       -0.0024
      2 C          63.0038   88.4897   11.6945 C.2     1  UNL1       -0.0246
      3 C          59.7512   88.0263   11.1274 C.3     1  UNL1        0.0310
      4 C          60.3914   87.2469   10.0171 C.ar    1  UNL1       -0.0218
      5 C          59.6147   86.9407    8.7710 C.ar    1  UNL1       -0.0043
      6 C          60.2548   86.1613    7.6607 C.ar    1  UNL1       -0.0003
      7 C          61.6717   85.6882    7.7965 C.ar    1  UNL1       -0.0000
      8 C          62.4484   85.9944    9.0427 C.ar    1  UNL1       -0.0003
      9 C          61.8083   86.7738   10.1530 C.ar    1  UNL1       -0.0042
     10 C          62.9430   85.9764   12.3499 C.ar    1  UNL1        0.0272
     11 C          62.5031   84.5705   12.0669 C.ar    1  UNL1        0.0022
     12 C          62.8611   83.4669   13.0177 C.ar    1  UNL1        0.0001
     13 C          63.6590   83.7692   14.2515 C.ar    1  UNL1        0.0023
     14 C          64.0988   85.1751   14.5344 C.ar    1  UNL1        0.0296
     15 C          63.7408   86.2786   13.5837 C.ar    1  UNL1        0.1401
     16 F          64.1807   87.6846   13.8667 F       1  UNL1       -0.2042
     17 C          62.6459   89.5932   10.7437 C.3     1  UNL1        0.0433
     18 C          62.8183   91.0248   11.1572 C.3     1  UNL1        0.0768
     19 N          64.1216   91.4854   11.7398 N.3     1  UNL1       -0.2721
     20 C          64.4262   91.2354   13.1870 C.3     1  UNL1        0.0721
     21 C          65.7295   91.6960   13.7696 C.3     1  UNL1        0.0177
     22 C          66.7282   92.4065   12.9048 C.3     1  UNL1        0.0084
     23 C          66.4235   92.6565   11.4575 C.3     1  UNL1        0.0525
     24 C          65.1203   92.1960   10.8749 C.3     1  UNL1        0.0776
     25 C          67.4222   93.3671   10.5927 C.2     1  UNL1        0.0513
     26 O          68.5760   92.6113   10.0032 O.co2   1  UNL1       -0.5491
     27 O          67.2671   94.8334   10.3175 O.co2   1  UNL1       -0.5491
@<TRIPOS>UNITY_ATOM_ATTR
26 1
charge -1
@<TRIPOS>BOND
     1     3     4    1
     2     4     5   ar
     3     5     6   ar
     4     6     7   ar
     5     7     8   ar
     6     8     9   ar
     7     9     1    1
     8     1     2    2
     9     2    17    1
    10    17    18    1
    11    18    19    1
    12    19    20    1
    13    20    21    1
    14    21    22    1
    15    22    23    1
    16    23    25    1
    17    25    26   ar
    18    25    27   ar
    19    23    24    1
    20     1    10    1
    21    10    11   ar
    22    11    12   ar
    23    12    13   ar
    24    13    14   ar
    25    14    15   ar
    26    15    16    1
    27     9     4   ar
    28    24    19    1
    29    15    10   ar
@<TRIPOS>MOLECULE
*****
 27 29 0 0 0
SMALL
GASTEIGER

@<TRIPOS>ATOM
      1 C          63.1672   83.9805   12.7355 C.2     1  UNL1       -0.0024
      2 C          64.0274   84.6653   13.7558 C.2     1  UNL1       -0.0246
      3 C          64.4945   83.3300   10.1249 C.3     1  UNL1        0.0310
      4 C          63.4260   84.3813   10.1816 C.ar    1  UNL1       -0.0218
      5 C          63.0211   85.1073    8.9331 C.ar    1  UNL1       -0.0043
      6 C          61.9526   86.1585    8.9898 C.ar    1  UNL1       -0.0003
      7 C          61.2889   86.4837   10.2950 C.ar    1  UNL1       -0.0000
      8 C          61.6938   85.7577   11.5436 C.ar    1  UNL1       -0.0003
      9 C          62.7623   84.7065   11.4869 C.ar    1  UNL1       -0.0042
     10 C          62.7118   82.5696   12.9639 C.ar    1  UNL1        0.0272
     11 C          63.0778   81.4953   11.9830 C.ar    1  UNL1        0.0022
     12 C          62.6224   80.0845   12.2113 C.ar    1  UNL1        0.0001
     13 C          61.8009   79.7480   13.4205 C.ar    1  UNL1        0.0023
     14 C          61.4349   80.8222   14.4013 C.ar    1  UNL1        0.0296
     15 C          61.8903   82.2331   14.1729 C.ar    1  UNL1        0.1401
     16 F          61.5243   83.3074   15.1538 F       1  UNL1       -0.2042
     17 C          64.4829   86.0761   13.5275 C.3     1  UNL1        0.0433
     18 C          63.9236   87.1893   14.3630 C.3     1  UNL1        0.0768
     19 N          63.9816   88.6030   13.8649 N.3     1  UNL1       -0.2721
     20 C          64.7920   89.6260   14.6042 C.3     1  UNL1        0.0721
     21 C          64.8500   91.0397   14.1060 C.3     1  UNL1        0.0177
     22 C          64.0976   91.4303   12.8687 C.3     1  UNL1        0.0084
     23 C          63.2871   90.4073   12.1293 C.3     1  UNL1        0.0525
     24 C          63.2291   88.9936   12.6275 C.3     1  UNL1        0.0776
     25 C          62.5346   90.7979   10.8919 C.2     1  UNL1        0.0513
     26 O          63.2245   91.5713    9.8074 O.co2   1  UNL1       -0.5491
     27 O          61.0924   90.4152   10.7390 O.co2   1  UNL1       -0.5491
@<TRIPOS>UNITY_ATOM_ATTR
26 1
charge -1
@<TRIPOS>BOND
     1     3     4    1
     2     4     5   ar
     3     5     6   ar
     4     6     7   ar
     5     7     8   ar
     6     8     9   ar
     7     9     1    1
     8     1     2    2
     9     2    17    1
    10    17    18    1
    11    18    19    1
    12    19    20    1
    13    20    21    1
    14    21    22    1
    15    22    23    1
    16    23    25    1
    17    25    26   ar
    18    25    27   ar
    19    23    24    1
    20     1    10    1
    21    10    11   ar
    22    11    12   ar
    23    12    13   ar
    24    13    14   ar
    25    14    15   ar
    26    15    16    1
    27     9     4   ar
    28    24    19    1
    29    15    10   ar
@<TRIPOS>MOLECULE
*****
 27 29 0 0 0
SMALL
GASTEIGER

@<TRIPOS>ATOM
      1 C          63.0996   84.0806   12.6990 C.2     1  UNL1       -0.0024
      2 C          63.9394   84.7946   13.7162 C.2     1  UNL1       -0.0246
      3 C          64.4859   83.4551   10.1131 C.3     1  UNL1        0.0310
      4 C          63.3822   84.4704   10.1459 C.ar    1  UNL1       -0.0218
      5 C          62.9716   85.1729    8.8858 C.ar    1  UNL1       -0.0043
      6 C          61.8679   86.1882    8.9187 C.ar    1  UNL1       -0.0003
      7 C          61.1748   86.5009   10.2116 C.ar    1  UNL1       -0.0000
      8 C          61.5853   85.7984   11.4717 C.ar    1  UNL1       -0.0003
      9 C          62.6890   84.7831   11.4388 C.ar    1  UNL1       -0.0042
     10 C          62.6703   82.6640   12.9418 C.ar    1  UNL1        0.0272
     11 C          63.0222   81.5934   11.9517 C.ar    1  UNL1        0.0022
     12 C          62.5929   80.1768   12.1946 C.ar    1  UNL1        0.0001
     13 C          61.8117   79.8308   13.4275 C.ar    1  UNL1        0.0023
     14 C          61.4598   80.9013   14.4175 C.ar    1  UNL1        0.0296
     15 C          61.8891   82.3179   14.1746 C.ar    1  UNL1        0.1401
     16 F          61.5372   83.3884   15.1647 F       1  UNL1       -0.2042
     17 C          64.3687   86.2112   13.4734 C.3     1  UNL1        0.0433
     18 C          63.5735   87.3451   14.0498 C.3     1  UNL1        0.0768
     19 N          63.8382   88.7514   13.6000 N.3     1  UNL1       -0.2721
     20 C          63.0905   89.3177   12.4295 C.3     1  UNL1        0.0721
     21 C          63.3551   90.7240   11.9798 C.3     1  UNL1        0.0177
     22 C          64.3675   91.5640   12.7006 C.3     1  UNL1        0.0084
     23 C          65.1152   90.9977   13.8712 C.3     1  UNL1        0.0525
     24 C          64.8506   89.5914   14.3209 C.3     1  UNL1        0.0776
     25 C          66.1275   91.8377   14.5920 C.2     1  UNL1        0.0513
     26 O          65.8050   93.2581   14.9504 O.co2   1  UNL1       -0.5491
     27 O          67.4624   91.2573   14.9544 O.co2   1  UNL1       -0.5491
@<TRIPOS>UNITY_ATOM_ATTR
26 1
charge -1
@<TRIPOS>BOND
     1     3     4    1
     2     4     5   ar
     3     5     6   ar
     4     6     7   ar
     5     7     8   ar
     6     8     9   ar
     7     9     1    1
     8     1     2    2
     9     2    17    1
    10    17    18    1
    11    18    19    1
    12    19    20    1
    13    20    21    1
    14    21    22    1
    15    22    23    1
    16    23    25    1
    17    25    26   ar
    18    25    27   ar
    19    23    24    1
    20     1    10    1
    21    10    11   ar
    22    11    12   ar
    23    12    13   ar
    24    13    14   ar
    25    14    15   ar
    26    15    16    1
    27     9     4   ar
    28    24    19    1
    29    15    10   ar
@<TRIPOS>MOLECULE
*****
 27 29 0 0 0
SMALL
GASTEIGER

@<TRIPOS>ATOM
      1 C          62.7277   86.4916   11.6863 C.2     1  UNL1       -0.0024
      2 C          63.1591   87.8232   12.2254 C.2     1  UNL1       -0.0246
      3 C          60.0204   87.7386   11.3464 C.3     1  UNL1        0.0310
      4 C          60.6714   87.0334   10.1936 C.ar    1  UNL1       -0.0218
      5 C          59.9687   86.9517    8.8709 C.ar    1  UNL1       -0.0043
      6 C          60.6197   86.2465    7.7182 C.ar    1  UNL1       -0.0003
      7 C          61.9734   85.6230    7.8881 C.ar    1  UNL1       -0.0000
      8 C          62.6760   85.7047    9.2108 C.ar    1  UNL1       -0.0003
      9 C          62.0250   86.4099   10.3635 C.ar    1  UNL1       -0.0042
     10 C          62.9990   85.2417   12.4699 C.ar    1  UNL1        0.0272
     11 C          62.4851   83.9213   11.9773 C.ar    1  UNL1        0.0022
     12 C          62.7564   82.6713   12.7608 C.ar    1  UNL1        0.0001
     13 C          63.5416   82.7417   14.0370 C.ar    1  UNL1        0.0023
     14 C          64.0555   84.0621   14.5296 C.ar    1  UNL1        0.0296
     15 C          63.7842   85.3120   13.7460 C.ar    1  UNL1        0.1401
     16 F          64.2981   86.6324   14.2386 F       1  UNL1       -0.2042
     17 C          62.8878   89.0732   11.4418 C.3     1  UNL1        0.0433
     18 C          62.8968   90.4063   12.1295 C.3     1  UNL1        0.0768
     19 N          64.0649   91.3313   11.9571 N.3     1  UNL1       -0.2721
     20 C          64.2864   92.0232   10.6447 C.3     1  UNL1        0.0721
     21 C          65.4545   92.9482   10.4723 C.3     1  UNL1        0.0177
     22 C          66.4012   93.1814   11.6121 C.3     1  UNL1        0.0084
     23 C          66.1798   92.4896   12.9246 C.3     1  UNL1        0.0525
     24 C          65.0116   91.5645   13.0970 C.3     1  UNL1        0.0776
     25 C          67.1265   92.7228   14.0644 C.2     1  UNL1        0.0513
     26 O          68.5495   92.2588   13.9645 O.co2   1  UNL1       -0.5491
     27 O          66.6503   93.4199   15.3043 O.co2   1  UNL1       -0.5491
@<TRIPOS>UNITY_ATOM_ATTR
26 1
charge -1
@<TRIPOS>BOND
     1     3     4    1
     2     4     5   ar
     3     5     6   ar
     4     6     7   ar
     5     7     8   ar
     6     8     9   ar
     7     9     1    1
     8     1     2    2
     9     2    17    1
    10    17    18    1
    11    18    19    1
    12    19    20    1
    13    20    21    1
    14    21    22    1
    15    22    23    1
    16    23    25    1
    17    25    26   ar
    18    25    27   ar
    19    23    24    1
    20     1    10    1
    21    10    11   ar
    22    11    12   ar
    23    12    13   ar
    24    13    14   ar
    25    14    15   ar
    26    15    16    1
    27     9     4   ar
    28    24    19    1
    29    15    10   ar
@<TRIPOS>MOLECULE
*****
 27 29 0 0 0
SMALL
GASTEIGER

@<TRIPOS>ATOM
      1 C          62.2880   86.6041   10.9600 C.2     1  UNL1       -0.0024
      2 C          62.9296   87.8784   11.4230 C.2     1  UNL1       -0.0246
      3 C          59.6759   88.0443   11.2809 C.3     1  UNL1        0.0310
      4 C          59.9953   87.3486    9.9909 C.ar    1  UNL1       -0.0218
      5 C          59.0086   87.3730    8.8614 C.ar    1  UNL1       -0.0043
      6 C          59.3279   86.6773    7.5714 C.ar    1  UNL1       -0.0003
      7 C          60.6339   85.9572    7.4110 C.ar    1  UNL1       -0.0000
      8 C          61.6206   85.9328    8.5405 C.ar    1  UNL1       -0.0003
      9 C          61.3013   86.6285    9.8304 C.ar    1  UNL1       -0.0042
     10 C          62.6331   85.3053   11.6264 C.ar    1  UNL1        0.0272
     11 C          62.2752   85.0828   13.0661 C.ar    1  UNL1        0.0022
     12 C          62.6203   83.7840   13.7325 C.ar    1  UNL1        0.0001
     13 C          63.3232   82.7078   12.9594 C.ar    1  UNL1        0.0023
     14 C          63.6811   82.9304   11.5198 C.ar    1  UNL1        0.0296
     15 C          63.3360   84.2292   10.8533 C.ar    1  UNL1        0.1401
     16 F          63.6939   84.4517    9.4137 F       1  UNL1       -0.2042
     17 C          62.5846   89.1771   10.7566 C.3     1  UNL1        0.0433
     18 C          62.4352   90.4244   11.5764 C.3     1  UNL1        0.0768
     19 N          63.4308   90.7374   12.6538 N.3     1  UNL1       -0.2721
     20 C          63.2334   90.1947   14.0382 C.3     1  UNL1        0.0721
     21 C          64.2290   90.5077   15.1155 C.3     1  UNL1        0.0177
     22 C          65.4221   91.3634   14.8086 C.3     1  UNL1        0.0084
     23 C          65.6196   91.9062   13.4242 C.3     1  UNL1        0.0525
     24 C          64.6240   91.5932   12.3468 C.3     1  UNL1        0.0776
     25 C          66.8127   92.7619   13.1173 C.2     1  UNL1        0.0513
     26 O          68.1751   92.3455   13.5868 O.co2   1  UNL1       -0.5491
     27 O          66.6434   94.0341   12.3408 O.co2   1  UNL1       -0.5491
@<TRIPOS>UNITY_ATOM_ATTR
26 1
charge -1
@<TRIPOS>BOND
     1     3     4    1
     2     4     5   ar
     3     5     6   ar
     4     6     7   ar
     5     7     8   ar
     6     8     9   ar
     7     9     1    1
     8     1     2    2
     9     2    17    1
    10    17    18    1
    11    18    19    1
    12    19    20    1
    13    20    21    1
    14    21    22    1
    15    22    23    1
    16    23    25    1
    17    25    26   ar
    18    25    27   ar
    19    23    24    1
    20     1    10    1
    21    10    11   ar
    22    11    12   ar
    23    12    13   ar
    24    13    14   ar
    25    14    15   ar
    26    15    16    1
    27     9     4   ar
    28    24    19    1
    29    15    10   ar
