@<TRIPOS>MOLECULE
*****
 31 34 0 0 0
SMALL
GASTEIGER

@<TRIPOS>ATOM
      1 C          63.4647   85.1820   13.8017 C.ar    1  UNL1        0.0180
      2 C          64.1110   86.2972   14.5690 C.ar    1  UNL1        0.0029
      3 C          64.0978   87.6924   14.0185 C.ar    1  UNL1        0.0189
      4 C          63.4383   87.9726   12.7007 C.ar    1  UNL1        0.0789
      5 C          62.7920   86.8574   11.9334 C.ar    1  UNL1        0.0669
      6 C          62.8052   85.4622   12.4839 C.ar    1  UNL1        0.0174
      7 N          63.4251   89.3678   12.1502 N.ar    1  UNL1       -0.2852
      8 C          63.0370   89.7619   10.7559 C.ar    1  UNL1        0.1023
      9 C          63.1697   91.2517   10.6413 C.ar    1  UNL1        0.1196
     10 N          63.6398   91.7783   11.9648 N.ar    1  UNL1       -0.2220
     11 C          63.7977   90.6140   12.8973 C.ar    1  UNL1        0.1829
     12 N          62.1324   87.1375   10.6156 N.am    1  UNL1       -0.2792
     13 C          60.7175   87.6339   10.5755 C.2     1  UNL1        0.2526
     14 O          59.9621   87.8501   11.8532 O.2     1  UNL1       -0.2697
     15 H          62.6282   86.9956    9.7770 H       1  UNL1        0.1552
     16 C          60.0580   87.9140    9.2577 C.ar    1  UNL1        0.0937
     17 C          59.2156   86.9535    8.4716 C.ar    1  UNL1        0.1266
     18 N          58.7620   87.6496    7.2227 N.ar    1  UNL1       -0.1620
     19 N          59.3241   89.0403    7.2369 N.ar    1  UNL1       -0.2105
     20 C          60.1250   89.2036    8.4946 C.ar    1  UNL1        0.1082
     21 C          59.1209   90.0842    6.1793 C.ar    1  UNL1        0.1638
     22 C          60.3025   90.6577    5.4545 C.ar    1  UNL1        0.0388
     23 C          60.0993   91.7016    4.3969 C.ar    1  UNL1        0.0047
     24 C          58.7145   92.1722    4.0638 C.ar    1  UNL1        0.0208
     25 C          57.5329   91.5989    4.7885 C.ar    1  UNL1        0.1006
     26 N          57.7362   90.5549    5.8462 N.ar    1  UNL1       -0.2250
     27 N          62.4058   82.8147   13.9576 N.2     1  UNL1       -0.0873
     28 C          63.4778   83.7868   14.3522 C.2     1  UNL1        0.0974
     29 C          64.5631   83.3636   15.2972 C.3     1  UNL1        0.0555
     30 C          62.4153   80.2449   13.5750 C.3     1  UNL1        0.2885
     31 O          62.4190   81.4194   14.5081 O.2     1  UNL1       -0.3734
@<TRIPOS>BOND
     1    30    31    1
     2    31    27    1
     3    27    28    2
     4    28    29    1
     5    28     1    1
     6     1     2   ar
     7     2     3   ar
     8     3     4   ar
     9     4     7    1
    10     7     8   ar
    11     8     9   ar
    12     9    10   ar
    13    10    11   ar
    14     4     5   ar
    15     5    12    1
    16    12    13   am
    17    13    14    2
    18    13    16    1
    19    16    17   ar
    20    17    18   ar
    21    18    19   ar
    22    19    21    1
    23    21    22   ar
    24    22    23   ar
    25    23    24   ar
    26    24    25   ar
    27    25    26   ar
    28    19    20   ar
    29     5     6   ar
    30     6     1   ar
    31    11     7   ar
    32    20    16   ar
    33    26    21   ar
    34    12    15    1
@<TRIPOS>MOLECULE
*****
 31 34 0 0 0
SMALL
GASTEIGER

@<TRIPOS>ATOM
      1 C          62.9884   82.1688   12.3061 C.ar    1  UNL1        0.0180
      2 C          62.4768   81.6741   13.6265 C.ar    1  UNL1        0.0029
      3 C          62.3163   82.6274   14.7734 C.ar    1  UNL1        0.0189
      4 C          62.6675   84.0753   14.6000 C.ar    1  UNL1        0.0789
      5 C          63.1791   84.5700   13.2796 C.ar    1  UNL1        0.0669
      6 C          63.3395   83.6167   12.1326 C.ar    1  UNL1        0.0174
      7 N          62.5070   85.0286   15.7469 N.ar    1  UNL1       -0.2852
      8 C          63.6122   85.5703   16.6044 C.ar    1  UNL1        0.1023
      9 C          63.0014   86.4841   17.6252 C.ar    1  UNL1        0.1196
     10 N          61.5188   86.5071   17.3987 N.ar    1  UNL1       -0.2220
     11 C          61.2133   85.6076   16.2378 C.ar    1  UNL1        0.1829
     12 N          63.5303   86.0180   13.1060 N.am    1  UNL1       -0.2792
     13 C          62.6239   86.9209   12.3230 C.2     1  UNL1        0.2526
     14 O          61.3664   86.3759   11.7135 O.2     1  UNL1       -0.2697
     15 H          64.3556   86.3757   13.5061 H       1  UNL1        0.1552
     16 C          62.9751   88.3689   12.1495 C.ar    1  UNL1        0.0937
     17 C          62.3966   89.2998   11.1254 C.ar    1  UNL1        0.1266
     18 N          63.0304   90.6465   11.3125 N.ar    1  UNL1       -0.1620
     19 N          64.0006   90.5477   12.4523 N.ar    1  UNL1       -0.2105
     20 C          63.9664   89.1402   12.9696 C.ar    1  UNL1        0.1082
     21 C          64.8549   91.6611   12.9818 C.ar    1  UNL1        0.1638
     22 C          65.4111   92.6910   12.0438 C.ar    1  UNL1        0.0388
     23 C          66.2654   93.8043   12.5733 C.ar    1  UNL1        0.0047
     24 C          66.5636   93.8879   14.0409 C.ar    1  UNL1        0.0208
     25 C          66.0074   92.8580   14.9792 C.ar    1  UNL1        0.1006
     26 N          65.1531   91.7447   14.4495 N.ar    1  UNL1       -0.2250
     27 N          62.6337   79.8114   11.2732 N.2     1  UNL1       -0.0873
     28 C          63.1488   81.2155   11.1591 C.2     1  UNL1        0.0974
     29 C          63.8244   81.6663    9.8981 C.3     1  UNL1        0.0555
     30 C          62.9264   77.3867   10.3868 C.3     1  UNL1        0.2885
     31 O          62.7942   78.8581   10.1263 O.2     1  UNL1       -0.3734
@<TRIPOS>BOND
     1    30    31    1
     2    31    27    1
     3    27    28    2
     4    28    29    1
     5    28     1    1
     6     1     2   ar
     7     2     3   ar
     8     3     4   ar
     9     4     7    1
    10     7     8   ar
    11     8     9   ar
    12     9    10   ar
    13    10    11   ar
    14     4     5   ar
    15     5    12    1
    16    12    13   am
    17    13    14    2
    18    13    16    1
    19    16    17   ar
    20    17    18   ar
    21    18    19   ar
    22    19    21    1
    23    21    22   ar
    24    22    23   ar
    25    23    24   ar
    26    24    25   ar
    27    25    26   ar
    28    19    20   ar
    29     5     6   ar
    30     6     1   ar
    31    11     7   ar
    32    20    16   ar
    33    26    21   ar
    34    12    15    1
@<TRIPOS>MOLECULE
*****
 31 34 0 0 0
SMALL
GASTEIGER

@<TRIPOS>ATOM
      1 C          64.1057   89.2515   14.4077 C.ar    1  UNL1        0.0180
      2 C          64.4313   87.9216   15.0202 C.ar    1  UNL1        0.0029
      3 C          64.1012   86.6563   14.2852 C.ar    1  UNL1        0.0189
      4 C          63.4455   86.7210   12.9377 C.ar    1  UNL1        0.0789
      5 C          63.1200   88.0509   12.3251 C.ar    1  UNL1        0.0669
      6 C          63.4500   89.3162   13.0601 C.ar    1  UNL1        0.0174
      7 N          63.1155   85.4557   12.2027 N.ar    1  UNL1       -0.2852
      8 C          63.1143   84.0730   12.7841 C.ar    1  UNL1        0.1023
      9 C          62.7267   83.1138   11.6980 C.ar    1  UNL1        0.1196
     10 N          62.4884   83.9036   10.4453 N.ar    1  UNL1       -0.2220
     11 C          62.7287   85.3510   10.7572 C.ar    1  UNL1        0.1829
     12 N          62.4643   88.1156   10.9775 N.am    1  UNL1       -0.2792
     13 C          60.9850   88.3409   10.8733 C.2     1  UNL1        0.2526
     14 O          60.1613   88.5014   12.1166 O.2     1  UNL1       -0.2697
     15 H          63.0049   88.0103   10.1615 H       1  UNL1        0.1552
     16 C          60.3293   88.4056    9.5257 C.ar    1  UNL1        0.0937
     17 C          59.6896   87.2589    8.8005 C.ar    1  UNL1        0.1266
     18 N          59.1631   87.7729    7.4933 N.ar    1  UNL1       -0.1620
     19 N          59.4774   89.2374    7.4107 N.ar    1  UNL1       -0.2105
     20 C          60.1981   89.6283    8.6668 C.ar    1  UNL1        0.1082
     21 C          59.1317   90.1504    6.2720 C.ar    1  UNL1        0.1638
     22 C          60.2219   90.7536    5.4367 C.ar    1  UNL1        0.0388
     23 C          59.8762   91.6666    4.2980 C.ar    1  UNL1        0.0047
     24 C          58.4403   91.9766    3.9945 C.ar    1  UNL1        0.0208
     25 C          57.3500   91.3734    4.8298 C.ar    1  UNL1        0.1006
     26 N          57.6958   90.4604    5.9686 N.ar    1  UNL1       -0.2250
     27 N          65.4739   91.4520   14.5971 N.2     1  UNL1       -0.0873
     28 C          64.4358   90.5167   15.1426 C.2     1  UNL1        0.0974
     29 C          63.7277   90.8467   16.4232 C.3     1  UNL1        0.0555
     30 C          67.0985   92.8337   16.0809 C.3     1  UNL1        0.2885
     31 O          65.8039   92.7172   15.3321 O.2     1  UNL1       -0.3734
@<TRIPOS>BOND
     1    30    31    1
     2    31    27    1
     3    27    28    2
     4    28    29    1
     5    28     1    1
     6     1     2   ar
     7     2     3   ar
     8     3     4   ar
     9     4     7    1
    10     7     8   ar
    11     8     9   ar
    12     9    10   ar
    13    10    11   ar
    14     4     5   ar
    15     5    12    1
    16    12    13   am
    17    13    14    2
    18    13    16    1
    19    16    17   ar
    20    17    18   ar
    21    18    19   ar
    22    19    21    1
    23    21    22   ar
    24    22    23   ar
    25    23    24   ar
    26    24    25   ar
    27    25    26   ar
    28    19    20   ar
    29     5     6   ar
    30     6     1   ar
    31    11     7   ar
    32    20    16   ar
    33    26    21   ar
    34    12    15    1
@<TRIPOS>MOLECULE
*****
 31 34 0 0 0
SMALL
GASTEIGER

@<TRIPOS>ATOM
      1 C          65.9757   93.4099   12.4120 C.ar    1  UNL1        0.0180
      2 C          66.1225   93.4419   13.9044 C.ar    1  UNL1        0.0029
      3 C          65.5518   92.3332   14.7381 C.ar    1  UNL1        0.0189
      4 C          64.8342   91.1926   14.0794 C.ar    1  UNL1        0.0789
      5 C          64.6873   91.1606   12.5870 C.ar    1  UNL1        0.0669
      6 C          65.2581   92.2693   11.7533 C.ar    1  UNL1        0.0174
      7 N          64.2634   90.0839   14.9131 N.ar    1  UNL1       -0.2852
      8 C          63.4802   90.2482   16.1818 C.ar    1  UNL1        0.1023
      9 C          63.1084   88.8821   16.6773 C.ar    1  UNL1        0.1196
     10 N          63.6618   87.8734   15.7149 N.ar    1  UNL1       -0.2220
     11 C          64.3757   88.6162   14.6246 C.ar    1  UNL1        0.1829
     12 N          63.9697   90.0199   11.9282 N.am    1  UNL1       -0.2792
     13 C          62.5310   90.1684   11.5307 C.2     1  UNL1        0.2526
     14 O          61.8099   91.4575   11.7918 O.2     1  UNL1       -0.2697
     15 H          64.4429   89.1738   11.7568 H       1  UNL1        0.1552
     16 C          61.8133   89.0277   10.8719 C.ar    1  UNL1        0.0937
     17 C          60.4611   88.5005   11.2505 C.ar    1  UNL1        0.1266
     18 N          60.1339   87.3609   10.3315 N.ar    1  UNL1       -0.1620
     19 N          61.2841   87.1840    9.3849 N.ar    1  UNL1       -0.2105
     20 C          62.3220   88.2141    9.7189 C.ar    1  UNL1        0.1082
     21 C          61.3795   86.1573    8.2956 C.ar    1  UNL1        0.1638
     22 C          62.6954   85.5031    7.9946 C.ar    1  UNL1        0.0388
     23 C          62.7908   84.4764    6.9054 C.ar    1  UNL1        0.0047
     24 C          61.5703   84.1037    6.1170 C.ar    1  UNL1        0.0208
     25 C          60.2544   84.7579    6.4179 C.ar    1  UNL1        0.1006
     26 N          60.1590   85.7846    7.5072 N.ar    1  UNL1       -0.2250
     27 N          67.5069   94.2052   10.4697 N.2     1  UNL1       -0.0873
     28 C          66.5464   94.5186   11.5783 C.2     1  UNL1        0.0974
     29 C          66.1567   95.9407   11.8533 C.3     1  UNL1        0.0555
     30 C          67.3947   95.7245    8.3651 C.3     1  UNL1        0.2885
     31 O          68.0777   95.3139    9.6359 O.2     1  UNL1       -0.3734
@<TRIPOS>BOND
     1    30    31    1
     2    31    27    1
     3    27    28    2
     4    28    29    1
     5    28     1    1
     6     1     2   ar
     7     2     3   ar
     8     3     4   ar
     9     4     7    1
    10     7     8   ar
    11     8     9   ar
    12     9    10   ar
    13    10    11   ar
    14     4     5   ar
    15     5    12    1
    16    12    13   am
    17    13    14    2
    18    13    16    1
    19    16    17   ar
    20    17    18   ar
    21    18    19   ar
    22    19    21    1
    23    21    22   ar
    24    22    23   ar
    25    23    24   ar
    26    24    25   ar
    27    25    26   ar
    28    19    20   ar
    29     5     6   ar
    30     6     1   ar
    31    11     7   ar
    32    20    16   ar
    33    26    21   ar
    34    12    15    1
@<TRIPOS>MOLECULE
*****
 31 34 0 0 0
SMALL
GASTEIGER

@<TRIPOS>ATOM
      1 C          60.8222   87.1928    9.4287 C.ar    1  UNL1        0.0180
      2 C          60.8219   85.6979    9.5525 C.ar    1  UNL1        0.0029
      3 C          61.6684   85.0316   10.5963 C.ar    1  UNL1        0.0189
      4 C          62.5153   85.8602   11.5162 C.ar    1  UNL1        0.0789
      5 C          62.5156   87.3550   11.3923 C.ar    1  UNL1        0.0669
      6 C          61.6691   88.0213   10.3486 C.ar    1  UNL1        0.0174
      7 N          63.3619   85.1938   12.5599 N.ar    1  UNL1       -0.2852
      8 C          63.8357   85.8160   13.8399 C.ar    1  UNL1        0.1023
      9 C          64.6499   84.7951   14.5780 C.ar    1  UNL1        0.1196
     10 N          64.6793   83.5419   13.7541 N.ar    1  UNL1       -0.2220
     11 C          63.8832   83.7884   12.5069 C.ar    1  UNL1        0.1829
     12 N          63.3626   88.1836   12.3123 N.am    1  UNL1       -0.2792
     13 C          62.7547   89.3340   13.0587 C.2     1  UNL1        0.2526
     14 O          61.2999   89.6558   12.8852 O.2     1  UNL1       -0.2697
     15 H          64.3174   87.9724   12.4261 H       1  UNL1        0.1552
     16 C          63.6016   90.1626   13.9786 C.ar    1  UNL1        0.0937
     17 C          63.1993   90.6659   15.3332 C.ar    1  UNL1        0.1266
     18 N          64.3486   91.4478   15.8972 N.ar    1  UNL1       -0.1620
     19 N          65.4611   91.4276   14.8912 N.ar    1  UNL1       -0.2105
     20 C          64.9994   90.6333   13.7055 C.ar    1  UNL1        0.1082
     21 C          66.8001   92.0860   15.0441 C.ar    1  UNL1        0.1638
     22 C          67.0386   93.0481   16.1700 C.ar    1  UNL1        0.0388
     23 C          68.3776   93.7065   16.3229 C.ar    1  UNL1        0.0047
     24 C          69.4782   93.4029   15.3499 C.ar    1  UNL1        0.0208
     25 C          69.2397   92.4408   14.2240 C.ar    1  UNL1        0.1006
     26 N          67.9006   91.7824   14.0712 N.ar    1  UNL1       -0.2250
     27 N          60.0918   89.3370    8.1564 N.2     1  UNL1       -0.0873
     28 C          59.9756   87.8591    8.3850 C.2     1  UNL1        0.0974
     29 C          59.0129   87.0475    7.5699 C.3     1  UNL1        0.0555
     30 C          59.7832   90.2043    5.7268 C.3     1  UNL1        0.2885
     31 O          59.2453   90.0033    7.1126 O.2     1  UNL1       -0.3734
@<TRIPOS>BOND
     1    30    31    1
     2    31    27    1
     3    27    28    2
     4    28    29    1
     5    28     1    1
     6     1     2   ar
     7     2     3   ar
     8     3     4   ar
     9     4     7    1
    10     7     8   ar
    11     8     9   ar
    12     9    10   ar
    13    10    11   ar
    14     4     5   ar
    15     5    12    1
    16    12    13   am
    17    13    14    2
    18    13    16    1
    19    16    17   ar
    20    17    18   ar
    21    18    19   ar
    22    19    21    1
    23    21    22   ar
    24    22    23   ar
    25    23    24   ar
    26    24    25   ar
    27    25    26   ar
    28    19    20   ar
    29     5     6   ar
    30     6     1   ar
    31    11     7   ar
    32    20    16   ar
    33    26    21   ar
    34    12    15    1
@<TRIPOS>MOLECULE
*****
 31 34 0 0 0
SMALL
GASTEIGER

@<TRIPOS>ATOM
      1 C          59.9419   88.5940    7.5991 C.ar    1  UNL1        0.0180
      2 C          59.7529   87.1164    7.4230 C.ar    1  UNL1        0.0029
      3 C          60.4507   86.1564    8.3403 C.ar    1  UNL1        0.0189
      4 C          61.3376   86.6740    9.4337 C.ar    1  UNL1        0.0789
      5 C          61.5266   88.1515    9.6098 C.ar    1  UNL1        0.0669
      6 C          60.8288   89.1115    8.6925 C.ar    1  UNL1        0.0174
      7 N          62.0354   85.7140   10.3510 N.ar    1  UNL1       -0.2852
      8 C          61.8623   85.6320   11.8387 C.ar    1  UNL1        0.1023
      9 C          62.7488   84.5348   12.3488 C.ar    1  UNL1        0.1196
     10 N          63.4698   83.9386   11.1764 N.ar    1  UNL1       -0.2220
     11 C          63.0289   84.6673    9.9417 C.ar    1  UNL1        0.1829
     12 N          62.4135   88.6692   10.7032 N.am    1  UNL1       -0.2792
     13 C          61.8109   89.3202   11.9127 C.2     1  UNL1        0.2526
     14 O          60.3214   89.4536   12.0289 O.2     1  UNL1       -0.2697
     15 H          63.3912   88.5816   10.6270 H       1  UNL1        0.1552
     16 C          62.6978   89.8378   13.0062 C.ar    1  UNL1        0.0937
     17 C          62.4312   89.7384   14.4789 C.ar    1  UNL1        0.1266
     18 N          63.5756   90.3849   15.2018 N.ar    1  UNL1       -0.1620
     19 N          64.5495   90.8837   14.1757 N.ar    1  UNL1       -0.2105
     20 C          64.0069   90.5456   12.8188 C.ar    1  UNL1        0.1082
     21 C          65.8393   91.5957   14.4572 C.ar    1  UNL1        0.1638
     22 C          66.0229   92.3318   15.7512 C.ar    1  UNL1        0.0388
     23 C          67.3127   93.0437   16.0327 C.ar    1  UNL1        0.0047
     24 C          68.4191   93.0196   15.0202 C.ar    1  UNL1        0.0208
     25 C          68.2357   92.2835   13.7261 C.ar    1  UNL1        0.1006
     26 N          66.9457   91.5716   13.4447 N.ar    1  UNL1       -0.2250
     27 N          60.0450   90.4813    5.8166 N.2     1  UNL1       -0.0873
     28 C          59.2441   89.5540    6.6818 C.2     1  UNL1        0.0974
     29 C          57.7454   89.5866    6.6297 C.3     1  UNL1        0.0555
     30 C          60.1475   92.3268    3.9907 C.3     1  UNL1        0.2885
     31 O          59.3471   91.4413    4.8993 O.2     1  UNL1       -0.3734
@<TRIPOS>BOND
     1    30    31    1
     2    31    27    1
     3    27    28    2
     4    28    29    1
     5    28     1    1
     6     1     2   ar
     7     2     3   ar
     8     3     4   ar
     9     4     7    1
    10     7     8   ar
    11     8     9   ar
    12     9    10   ar
    13    10    11   ar
    14     4     5   ar
    15     5    12    1
    16    12    13   am
    17    13    14    2
    18    13    16    1
    19    16    17   ar
    20    17    18   ar
    21    18    19   ar
    22    19    21    1
    23    21    22   ar
    24    22    23   ar
    25    23    24   ar
    26    24    25   ar
    27    25    26   ar
    28    19    20   ar
    29     5     6   ar
    30     6     1   ar
    31    11     7   ar
    32    20    16   ar
    33    26    21   ar
    34    12    15    1
@<TRIPOS>MOLECULE
*****
 31 34 0 0 0
SMALL
GASTEIGER

@<TRIPOS>ATOM
      1 C          63.0202   85.1890   12.6450 C.ar    1  UNL1        0.0180
      2 C          61.7373   84.9770   11.8972 C.ar    1  UNL1        0.0029
      3 C          61.0801   86.1276   11.1941 C.ar    1  UNL1        0.0189
      4 C          61.7058   87.4901   11.2388 C.ar    1  UNL1        0.0789
      5 C          62.9886   87.7020   11.9866 C.ar    1  UNL1        0.0669
      6 C          63.6458   86.5515   12.6897 C.ar    1  UNL1        0.0174
      7 N          61.0486   88.6406   10.5357 N.ar    1  UNL1       -0.2852
      8 C          60.7901   88.7417    9.0616 C.ar    1  UNL1        0.1023
      9 C          60.1163   90.0556    8.7981 C.ar    1  UNL1        0.1196
     10 N          59.9582   90.7667   10.1094 N.ar    1  UNL1       -0.2220
     11 C          60.5344   89.8921   11.1833 C.ar    1  UNL1        0.1829
     12 N          63.6144   89.0646   12.0314 N.am    1  UNL1       -0.2792
     13 C          64.0659   89.6399   13.3410 C.2     1  UNL1        0.2526
     14 O          63.8917   88.8527   14.6059 O.2     1  UNL1       -0.2697
     15 H          63.7287   89.5813   11.2012 H       1  UNL1        0.1552
     16 C          64.6916   91.0025   13.3858 C.ar    1  UNL1        0.0937
     17 C          65.1181   91.7365   14.6224 C.ar    1  UNL1        0.1266
     18 N          65.6908   93.0579   14.2027 N.ar    1  UNL1       -0.1620
     19 N          65.6182   93.1404   12.7067 N.ar    1  UNL1       -0.2105
     20 C          65.0006   91.8701   12.2018 C.ar    1  UNL1        0.1082
     21 C          66.0817   94.2912   11.8637 C.ar    1  UNL1        0.1638
     22 C          66.6797   94.0375   10.5116 C.ar    1  UNL1        0.0388
     23 C          67.1432   95.1882    9.6685 C.ar    1  UNL1        0.0047
     24 C          67.0087   96.5928   10.1775 C.ar    1  UNL1        0.0208
     25 C          66.4107   96.8467   11.5296 C.ar    1  UNL1        0.1006
     26 N          65.9472   95.6958   12.3726 N.ar    1  UNL1       -0.2250
     27 N          63.3540   82.6301   12.9458 N.2     1  UNL1       -0.0873
     28 C          63.6773   84.0384   13.3481 C.2     1  UNL1        0.0974
     29 C          64.6579   84.2963   14.4535 C.3     1  UNL1        0.0555
     30 C          63.2572   80.2000   13.8599 C.3     1  UNL1        0.2885
     31 O          64.0112   81.4795   13.6489 O.2     1  UNL1       -0.3734
@<TRIPOS>BOND
     1    30    31    1
     2    31    27    1
     3    27    28    2
     4    28    29    1
     5    28     1    1
     6     1     2   ar
     7     2     3   ar
     8     3     4   ar
     9     4     7    1
    10     7     8   ar
    11     8     9   ar
    12     9    10   ar
    13    10    11   ar
    14     4     5   ar
    15     5    12    1
    16    12    13   am
    17    13    14    2
    18    13    16    1
    19    16    17   ar
    20    17    18   ar
    21    18    19   ar
    22    19    21    1
    23    21    22   ar
    24    22    23   ar
    25    23    24   ar
    26    24    25   ar
    27    25    26   ar
    28    19    20   ar
    29     5     6   ar
    30     6     1   ar
    31    11     7   ar
    32    20    16   ar
    33    26    21   ar
    34    12    15    1
@<TRIPOS>MOLECULE
*****
 31 34 0 0 0
SMALL
GASTEIGER

@<TRIPOS>ATOM
      1 C          64.8915   91.7047   13.1687 C.ar    1  UNL1        0.0180
      2 C          64.7117   92.0439   14.6187 C.ar    1  UNL1        0.0029
      3 C          64.2812   90.9842   15.5891 C.ar    1  UNL1        0.0189
      4 C          64.0306   89.5853   15.1096 C.ar    1  UNL1        0.0789
      5 C          64.2104   89.2460   13.6596 C.ar    1  UNL1        0.0669
      6 C          64.6409   90.3057   12.6892 C.ar    1  UNL1        0.0174
      7 N          63.6001   88.5256   16.0800 N.ar    1  UNL1       -0.2852
      8 C          62.9419   88.7603   17.4073 C.ar    1  UNL1        0.1023
      9 C          62.6873   87.4249   18.0411 C.ar    1  UNL1        0.1196
     10 N          63.1882   86.3647   17.1056 N.ar    1  UNL1       -0.2220
     11 C          63.7523   87.0450   15.8936 C.ar    1  UNL1        0.1829
     12 N          63.9598   87.8470   13.1800 N.am    1  UNL1       -0.2792
     13 C          62.8808   87.5815   12.1724 C.2     1  UNL1        0.2526
     14 O          62.0524   88.7151   11.6444 O.2     1  UNL1       -0.2697
     15 H          64.5035   87.1030   13.5265 H       1  UNL1        0.1552
     16 C          62.6302   86.1825   11.6928 C.ar    1  UNL1        0.0937
     17 C          62.1659   85.7906   10.3213 C.ar    1  UNL1        0.1266
     18 N          62.0486   84.2957   10.2813 N.ar    1  UNL1       -0.1620
     19 N          62.4404   83.7638   11.6280 N.ar    1  UNL1       -0.2105
     20 C          62.7998   84.9299   12.5003 C.ar    1  UNL1        0.1082
     21 C          62.4679   82.3194   12.0315 C.ar    1  UNL1        0.1638
     22 C          62.0734   81.9217   13.4230 C.ar    1  UNL1        0.0388
     23 C          62.1009   80.4773   13.8265 C.ar    1  UNL1        0.0047
     24 C          62.5230   79.4305   12.8386 C.ar    1  UNL1        0.0208
     25 C          62.9175   79.8281   11.4471 C.ar    1  UNL1        0.1006
     26 N          62.8900   81.2726   11.0436 N.ar    1  UNL1       -0.2250
     27 N          66.1995   93.8906   12.6581 N.2     1  UNL1       -0.0873
     28 C          65.3220   92.7644   12.1983 C.2     1  UNL1        0.0974
     29 C          64.8750   92.6978   10.7680 C.3     1  UNL1        0.0555
     30 C          66.1386   96.3585   11.8482 C.3     1  UNL1        0.2885
     31 O          66.6299   94.9503   11.6877 O.2     1  UNL1       -0.3734
@<TRIPOS>BOND
     1    30    31    1
     2    31    27    1
     3    27    28    2
     4    28    29    1
     5    28     1    1
     6     1     2   ar
     7     2     3   ar
     8     3     4   ar
     9     4     7    1
    10     7     8   ar
    11     8     9   ar
    12     9    10   ar
    13    10    11   ar
    14     4     5   ar
    15     5    12    1
    16    12    13   am
    17    13    14    2
    18    13    16    1
    19    16    17   ar
    20    17    18   ar
    21    18    19   ar
    22    19    21    1
    23    21    22   ar
    24    22    23   ar
    25    23    24   ar
    26    24    25   ar
    27    25    26   ar
    28    19    20   ar
    29     5     6   ar
    30     6     1   ar
    31    11     7   ar
    32    20    16   ar
    33    26    21   ar
    34    12    15    1
@<TRIPOS>MOLECULE
*****
 31 34 0 0 0
SMALL
GASTEIGER

@<TRIPOS>ATOM
      1 C          63.0006   84.4491   12.4038 C.ar    1  UNL1        0.0180
      2 C          62.0203   84.4473   11.2685 C.ar    1  UNL1        0.0029
      3 C          61.5586   85.7449   10.6742 C.ar    1  UNL1        0.0189
      4 C          62.0772   87.0442   11.2153 C.ar    1  UNL1        0.0789
      5 C          63.0574   87.0460   12.3506 C.ar    1  UNL1        0.0669
      6 C          63.5192   85.7484   12.9448 C.ar    1  UNL1        0.0174
      7 N          61.6154   88.3418   10.6210 N.ar    1  UNL1       -0.2852
      8 C          62.4975   89.4664   10.1657 C.ar    1  UNL1        0.1023
      9 C          61.6178   90.5622    9.6410 C.ar    1  UNL1        0.1196
     10 N          60.1921   90.1149    9.7720 N.ar    1  UNL1       -0.2220
     11 C          60.1906   88.7426   10.3777 C.ar    1  UNL1        0.1829
     12 N          63.5761   88.3454   12.8917 N.am    1  UNL1       -0.2792
     13 C          63.8443   88.4926   14.3601 C.2     1  UNL1        0.2526
     14 O          63.5939   87.3406   15.2875 O.2     1  UNL1       -0.2697
     15 H          63.7404   89.1015   12.2830 H       1  UNL1        0.1552
     16 C          64.3629   89.7920   14.9012 C.ar    1  UNL1        0.0937
     17 C          63.5596   90.8250   15.6345 C.ar    1  UNL1        0.1266
     18 N          64.4761   91.9580   15.9905 N.ar    1  UNL1       -0.1620
     19 N          65.8457   91.6250   15.4773 N.ar    1  UNL1       -0.2105
     20 C          65.7757   90.2864   14.8040 C.ar    1  UNL1        0.1082
     21 C          67.0702   92.4805   15.6133 C.ar    1  UNL1        0.1638
     22 C          68.3161   91.9146   16.2279 C.ar    1  UNL1        0.0388
     23 C          69.5406   92.7701   16.3639 C.ar    1  UNL1        0.0047
     24 C          69.5194   94.1916   15.8855 C.ar    1  UNL1        0.0208
     25 C          68.2735   94.7576   15.2709 C.ar    1  UNL1        0.1006
     26 N          67.0490   93.9020   15.1349 N.ar    1  UNL1       -0.2250
     27 N          62.6865   81.8929   12.7456 N.2     1  UNL1       -0.0873
     28 C          63.4623   83.1515   12.9981 C.2     1  UNL1        0.0974
     29 C          64.6998   83.1127   13.8448 C.3     1  UNL1        0.0555
     30 C          62.2800   79.3757   13.2446 C.3     1  UNL1        0.2885
     31 O          63.1482   80.5953   13.3399 O.2     1  UNL1       -0.3734
@<TRIPOS>BOND
     1    30    31    1
     2    31    27    1
     3    27    28    2
     4    28    29    1
     5    28     1    1
     6     1     2   ar
     7     2     3   ar
     8     3     4   ar
     9     4     7    1
    10     7     8   ar
    11     8     9   ar
    12     9    10   ar
    13    10    11   ar
    14     4     5   ar
    15     5    12    1
    16    12    13   am
    17    13    14    2
    18    13    16    1
    19    16    17   ar
    20    17    18   ar
    21    18    19   ar
    22    19    21    1
    23    21    22   ar
    24    22    23   ar
    25    23    24   ar
    26    24    25   ar
    27    25    26   ar
    28    19    20   ar
    29     5     6   ar
    30     6     1   ar
    31    11     7   ar
    32    20    16   ar
    33    26    21   ar
    34    12    15    1
