@<TRIPOS>MOLECULE
*****
 19 20 0 0 0
SMALL
GASTEIGER

@<TRIPOS>ATOM
      1 C          61.0321   86.2837    8.9626 C.3     1  UNL1        0.0341
      2 C          61.7826   86.5717   10.2291 C.2     1  UNL1        0.0151
      3 C          62.0782   85.2419   10.8568 C.2     1  UNL1        0.0015
      4 C          62.7029   84.4965   11.9989 C.3     1  UNL1        0.1347
      5 O          62.4710   83.0392   11.7297 O.3     1  UNL1       -0.3800
      6 C          63.4582   84.5723   13.2926 C.3     1  UNL1        0.0634
      7 C          64.1045   85.4452   14.3273 C.3     1  UNL1        0.1202
      8 C          64.3327   84.0557   14.8442 C.3     1  UNL1        0.0322
      9 O          64.8583   85.6629   15.6056 O.3     1  UNL1       -0.3561
     10 C          64.4364   86.8380   14.7743 C.3     1  UNL1        0.1401
     11 C          64.3486   88.3086   14.4919 C.3     1  UNL1        0.0360
     12 C          63.8690   89.3899   13.5697 C.3     1  UNL1        0.0211
     13 C          63.8530   90.8813   13.4089 C.3     1  UNL1        0.0044
     14 C          64.5777   90.0165   14.7338 C.3     1  UNL1        0.0044
     15 C          63.1499   89.7388   12.3003 C.2     1  UNL1       -0.0234
     16 C          62.4195   89.2445   11.0870 C.2     1  UNL1        0.0371
     17 C          61.9098   88.0638   10.3149 C.2     1  UNL1        0.1912
     18 O          61.2310   88.6166    9.0968 O.2     1  UNL1       -0.2869
     19 H          62.8595   82.5124   12.4456 H       1  UNL1        0.2108
@<TRIPOS>BOND
     1     1     2    1
     2     2     3    2
     3     3     4    1
     4     4     5    1
     5     4     6    1
     6     6     7    1
     7     7     8    1
     8     7     9    1
     9     9    10    1
    10    10    11    1
    11    11    12    1
    12    12    13    1
    13    12    14    1
    14    12    15    1
    15    15    16    2
    16    16    17    1
    17    17    18    2
    18    17     2    1
    19    10     7    1
    20     5    19    1
@<TRIPOS>MOLECULE
*****
 19 20 0 0 0
SMALL
GASTEIGER

@<TRIPOS>ATOM
      1 C          64.6340   89.9938   14.8106 C.3     1  UNL1        0.0341
      2 C          64.0666   88.9111   13.9411 C.2     1  UNL1        0.0151
      3 C          64.4149   87.6112   14.6036 C.2     1  UNL1        0.0015
      4 C          64.3328   86.1138   14.5658 C.3     1  UNL1        0.1347
      5 O          65.0502   85.6203   15.7871 O.3     1  UNL1       -0.3800
      6 C          63.8466   84.8947   13.8398 C.3     1  UNL1        0.0634
      7 C          63.1105   84.3406   12.6561 C.3     1  UNL1        0.1202
      8 C          63.5230   83.1175   13.4201 C.3     1  UNL1        0.0322
      9 O          62.5689   83.2099   11.8326 O.3     1  UNL1       -0.3561
     10 C          62.3582   84.6276   11.3904 C.3     1  UNL1        0.1401
     11 C          61.8287   85.6646   10.4448 C.3     1  UNL1        0.0360
     12 C          61.6900   87.1222   10.1193 C.3     1  UNL1        0.0211
     13 C          61.1089   88.0517    9.0952 C.3     1  UNL1        0.0044
     14 C          61.0137   86.3146    9.0514 C.3     1  UNL1        0.0044
     15 C          61.9862   88.5379   10.5173 C.2     1  UNL1       -0.0234
     16 C          62.6231   89.4619   11.5125 C.2     1  UNL1        0.0371
     17 C          63.3987   89.6011   12.7888 C.2     1  UNL1        0.1912
     18 O          63.5897   91.0725   13.0090 O.2     1  UNL1       -0.2869
     19 H          65.0243   84.6509   15.8077 H       1  UNL1        0.2108
@<TRIPOS>BOND
     1     1     2    1
     2     2     3    2
     3     3     4    1
     4     4     5    1
     5     4     6    1
     6     6     7    1
     7     7     8    1
     8     7     9    1
     9     9    10    1
    10    10    11    1
    11    11    12    1
    12    12    13    1
    13    12    14    1
    14    12    15    1
    15    15    16    2
    16    16    17    1
    17    17    18    2
    18    17     2    1
    19    10     7    1
    20     5    19    1
@<TRIPOS>MOLECULE
*****
 19 20 0 0 0
SMALL
GASTEIGER

@<TRIPOS>ATOM
      1 C          64.1665   91.6274   13.2851 C.3     1  UNL1        0.0341
      2 C          63.8093   90.2081   12.9561 C.2     1  UNL1        0.0151
      3 C          63.0757   90.2494   11.6484 C.2     1  UNL1        0.0015
      4 C          62.3737   89.4778   10.5704 C.3     1  UNL1        0.1347
      5 O          61.9220   90.4855    9.5552 O.3     1  UNL1       -0.3800
      6 C          61.9263   88.1386   10.0644 C.3     1  UNL1        0.0634
      7 C          61.8754   86.6566   10.2911 C.3     1  UNL1        0.1202
      8 C          61.1600   86.8394    8.9854 C.3     1  UNL1        0.0322
      9 O          61.4872   85.2609    9.9022 O.3     1  UNL1       -0.3561
     10 C          62.2372   85.5026   11.1785 C.3     1  UNL1        0.1401
     11 C          62.8970   85.0430   12.4448 C.3     1  UNL1        0.0360
     12 C          63.6450   85.4235   13.6879 C.3     1  UNL1        0.0211
     13 C          64.2678   84.8310   14.9173 C.3     1  UNL1        0.0044
     14 C          63.4534   83.9360   13.6667 C.3     1  UNL1        0.0044
     15 C          64.2440   86.5236   14.5133 C.2     1  UNL1       -0.0234
     16 C          64.5037   87.9937   14.6588 C.2     1  UNL1        0.0371
     17 C          64.3417   89.3673   14.0783 C.2     1  UNL1        0.1912
     18 O          64.9988   90.3127   15.0398 O.2     1  UNL1       -0.2869
     19 H          61.4594   90.0320    8.8332 H       1  UNL1        0.2108
@<TRIPOS>BOND
     1     1     2    1
     2     2     3    2
     3     3     4    1
     4     4     5    1
     5     4     6    1
     6     6     7    1
     7     7     8    1
     8     7     9    1
     9     9    10    1
    10    10    11    1
    11    11    12    1
    12    12    13    1
    13    12    14    1
    14    12    15    1
    15    15    16    2
    16    16    17    1
    17    17    18    2
    18    17     2    1
    19    10     7    1
    20     5    19    1
@<TRIPOS>MOLECULE
*****
 19 20 0 0 0
SMALL
GASTEIGER

@<TRIPOS>ATOM
      1 C          63.0066   83.3871   12.4544 C.3     1  UNL1        0.0341
      2 C          62.9617   84.8849   12.3863 C.2     1  UNL1        0.0151
      3 C          62.1533   85.2285   11.1705 C.2     1  UNL1        0.0015
      4 C          61.5762   86.3071   10.3022 C.3     1  UNL1        0.1347
      5 O          60.8404   85.6107    9.1960 O.3     1  UNL1       -0.3800
      6 C          61.4137   87.7780   10.0573 C.3     1  UNL1        0.0634
      7 C          61.7174   89.1743   10.5134 C.3     1  UNL1        0.1202
      8 C          60.8945   89.3777    9.2759 C.3     1  UNL1        0.0322
      9 O          61.6331   90.6665   10.3860 O.3     1  UNL1       -0.3561
     10 C          62.3908   90.0527   11.5258 C.3     1  UNL1        0.1401
     11 C          63.2202   90.1343   12.7730 C.3     1  UNL1        0.0360
     12 C          63.9422   89.3932   13.8590 C.3     1  UNL1        0.0211
     13 C          64.7636   89.6168   15.0941 C.3     1  UNL1        0.0044
     14 C          64.0941   90.8680   14.0868 C.3     1  UNL1        0.0044
     15 C          64.3276   88.0646   14.4391 C.2     1  UNL1       -0.0234
     16 C          64.2540   86.5705   14.3290 C.2     1  UNL1        0.0371
     17 C          63.7448   85.3851   13.5638 C.2     1  UNL1        0.1912
     18 O          64.2310   84.1692   14.2953 O.2     1  UNL1       -0.2869
     19 H          60.4468   86.2706    8.6039 H       1  UNL1        0.2108
@<TRIPOS>BOND
     1     1     2    1
     2     2     3    2
     3     3     4    1
     4     4     5    1
     5     4     6    1
     6     6     7    1
     7     7     8    1
     8     7     9    1
     9     9    10    1
    10    10    11    1
    11    11    12    1
    12    12    13    1
    13    12    14    1
    14    12    15    1
    15    15    16    2
    16    16    17    1
    17    17    18    2
    18    17     2    1
    19    10     7    1
    20     5    19    1
@<TRIPOS>MOLECULE
*****
 19 20 0 0 0
SMALL
GASTEIGER

@<TRIPOS>ATOM
      1 C          61.0569   87.2555    8.5970 C.3     1  UNL1        0.0341
      2 C          61.7924   87.4099    9.8952 C.2     1  UNL1        0.0151
      3 C          62.0545   88.8776   10.0604 C.2     1  UNL1        0.0015
      4 C          62.6478   89.9664   10.9046 C.3     1  UNL1        0.1347
      5 O          62.3944   91.2523   10.1752 O.3     1  UNL1       -0.3800
      6 C          63.3839   90.3305   12.1598 C.3     1  UNL1        0.0634
      7 C          64.0291   89.8544   13.4275 C.3     1  UNL1        0.1202
      8 C          64.2245   91.3411   13.4679 C.3     1  UNL1        0.0322
      9 O          64.7664   90.0793   14.7143 O.3     1  UNL1       -0.3561
     10 C          64.3785   88.6893   14.3052 C.3     1  UNL1        0.1401
     11 C          64.3212   87.2050   14.5143 C.3     1  UNL1        0.0360
     12 C          63.8754   85.8729   13.9883 C.3     1  UNL1        0.0211
     13 C          63.8883   84.4100   14.3198 C.3     1  UNL1        0.0044
     14 C          64.5766   85.6731   15.2992 C.3     1  UNL1        0.0044
     15 C          63.1827   85.1158   12.8943 C.2     1  UNL1       -0.0234
     16 C          62.4629   85.1741   11.5795 C.2     1  UNL1        0.0371
     17 C          61.9446   86.0293   10.4616 C.2     1  UNL1        0.1912
     18 O          61.2949   85.0969    9.4825 O.2     1  UNL1       -0.2869
     19 H          62.7622   91.9911   10.6849 H       1  UNL1        0.2108
@<TRIPOS>BOND
     1     1     2    1
     2     2     3    2
     3     3     4    1
     4     4     5    1
     5     4     6    1
     6     6     7    1
     7     7     8    1
     8     7     9    1
     9     9    10    1
    10    10    11    1
    11    11    12    1
    12    12    13    1
    13    12    14    1
    14    12    15    1
    15    15    16    2
    16    16    17    1
    17    17    18    2
    18    17     2    1
    19    10     7    1
    20     5    19    1
@<TRIPOS>MOLECULE
*****
 19 20 0 0 0
SMALL
GASTEIGER

@<TRIPOS>ATOM
      1 C          64.3276   83.8784   14.9652 C.3     1  UNL1        0.0341
      2 C          63.9065   84.9863   14.0458 C.2     1  UNL1        0.0151
      3 C          63.2618   84.3302   12.8610 C.2     1  UNL1        0.0015
      4 C          62.5845   84.5067   11.5342 C.3     1  UNL1        0.1347
      5 O          62.2606   83.1286   11.0384 O.3     1  UNL1       -0.3800
      6 C          62.0897   85.4597   10.4869 C.3     1  UNL1        0.0634
      7 C          61.9345   86.8867   10.0514 C.3     1  UNL1        0.1202
      8 C          61.3164   86.1055    8.9299 C.3     1  UNL1        0.0322
      9 O          61.4879   87.9453    9.0871 O.3     1  UNL1       -0.3561
     10 C          62.1682   88.3346   10.3660 C.3     1  UNL1        0.1401
     11 C          62.7166   89.3437   11.3309 C.3     1  UNL1        0.0360
     12 C          63.4055   89.5936   12.6397 C.3     1  UNL1        0.0211
     13 C          63.9114   90.7035   13.5129 C.3     1  UNL1        0.0044
     14 C          63.1256   90.9082   11.9737 C.3     1  UNL1        0.0044
     15 C          64.0163   89.0050   13.8769 C.2     1  UNL1       -0.0234
     16 C          64.3550   87.7647   14.6496 C.2     1  UNL1        0.0371
     17 C          64.3141   86.2667   14.7126 C.2     1  UNL1        0.1912
     18 O          64.9647   85.8802   16.0077 O.2     1  UNL1       -0.2869
     19 H          61.8184   83.1904   10.1773 H       1  UNL1        0.2108
@<TRIPOS>BOND
     1     1     2    1
     2     2     3    2
     3     3     4    1
     4     4     5    1
     5     4     6    1
     6     6     7    1
     7     7     8    1
     8     7     9    1
     9     9    10    1
    10    10    11    1
    11    11    12    1
    12    12    13    1
    13    12    14    1
    14    12    15    1
    15    15    16    2
    16    16    17    1
    17    17    18    2
    18    17     2    1
    19    10     7    1
    20     5    19    1
@<TRIPOS>MOLECULE
*****
 19 20 0 0 0
SMALL
GASTEIGER

@<TRIPOS>ATOM
      1 C          60.4960   88.7031    8.7404 C.3     1  UNL1        0.0341
      2 C          61.2859   88.1573    9.8929 C.2     1  UNL1        0.0151
      3 C          61.8072   89.3441   10.6476 C.2     1  UNL1        0.0015
      4 C          62.6081   89.8467   11.8122 C.3     1  UNL1        0.1347
      5 O          62.5632   91.3443   11.7412 O.3     1  UNL1       -0.3800
      6 C          63.4342   89.5053   13.0167 C.3     1  UNL1        0.0634
      7 C          64.0233   88.4284   13.8789 C.3     1  UNL1        0.1202
      8 C          64.4786   89.6970   14.5371 C.3     1  UNL1        0.0322
      9 O          64.8271   87.9497   15.0514 O.3     1  UNL1       -0.3561
     10 C          64.1884   86.9579   14.1249 C.3     1  UNL1        0.1401
     11 C          63.8770   85.5607   13.6766 C.3     1  UNL1        0.0360
     12 C          63.1880   84.6805   12.6765 C.3     1  UNL1        0.0211
     13 C          62.9531   83.2377   12.3398 C.3     1  UNL1        0.0044
     14 C          63.8822   83.8206   13.6908 C.3     1  UNL1        0.0044
     15 C          62.3401   84.5965   11.4419 C.2     1  UNL1       -0.0234
     16 C          61.6026   85.3356   10.3649 C.2     1  UNL1        0.0371
     17 C          61.2096   86.6630    9.7875 C.2     1  UNL1        0.1912
     18 O          60.3768   86.3668    8.5756 O.2     1  UNL1       -0.2869
     19 H          63.0705   91.7183   12.4786 H       1  UNL1        0.2108
@<TRIPOS>BOND
     1     1     2    1
     2     2     3    2
     3     3     4    1
     4     4     5    1
     5     4     6    1
     6     6     7    1
     7     7     8    1
     8     7     9    1
     9     9    10    1
    10    10    11    1
    11    11    12    1
    12    12    13    1
    13    12    14    1
    14    12    15    1
    15    15    16    2
    16    16    17    1
    17    17    18    2
    18    17     2    1
    19    10     7    1
    20     5    19    1
@<TRIPOS>MOLECULE
*****
 19 20 0 0 0
SMALL
GASTEIGER

@<TRIPOS>ATOM
      1 C          61.6870   89.4529   12.9850 C.3     1  UNL1        0.0341
      2 C          62.8587   90.3893   13.0049 C.2     1  UNL1        0.0151
      3 C          63.0184   90.8963   11.6023 C.2     1  UNL1        0.0015
      4 C          63.7876   91.7700   10.6561 C.3     1  UNL1        0.1347
      5 O          63.1393   91.6116    9.3128 O.3     1  UNL1       -0.3800
      6 C          64.9220   92.7329   10.4670 C.3     1  UNL1        0.0634
      7 C          66.0616   93.4794   11.0948 C.3     1  UNL1        0.1202
      8 C          66.1089   93.9055    9.6574 C.3     1  UNL1        0.0322
      9 O          67.2235   94.4267   11.0449 O.3     1  UNL1       -0.3561
     10 C          66.8445   93.7724   12.3403 C.3     1  UNL1        0.1401
     11 C          67.0221   93.5189   13.8081 C.3     1  UNL1        0.0360
     12 C          66.5381   92.7994   15.0320 C.3     1  UNL1        0.0211
     13 C          66.8262   92.6361   16.4950 C.3     1  UNL1        0.0044
     14 C          67.7186   93.6496   15.3974 C.3     1  UNL1        0.0044
     15 C          65.5460   91.8423   15.6236 C.2     1  UNL1       -0.0234
     16 C          64.3610   90.9515   15.3950 C.2     1  UNL1        0.0371
     17 C          63.3592   90.4099   14.4188 C.2     1  UNL1        0.1912
     18 O          62.4696   89.4851   15.1955 O.2     1  UNL1       -0.2869
     19 H          63.6044   92.1610    8.6626 H       1  UNL1        0.2108
@<TRIPOS>BOND
     1     1     2    1
     2     2     3    2
     3     3     4    1
     4     4     5    1
     5     4     6    1
     6     6     7    1
     7     7     8    1
     8     7     9    1
     9     9    10    1
    10    10    11    1
    11    11    12    1
    12    12    13    1
    13    12    14    1
    14    12    15    1
    15    15    16    2
    16    16    17    1
    17    17    18    2
    18    17     2    1
    19    10     7    1
    20     5    19    1
