@<TRIPOS>MOLECULE
*****
 29 31 0 0 0
SMALL
GASTEIGER

@<TRIPOS>ATOM
      1 C          63.2731   89.7837   12.0287 C.ar    1  UNL1        0.0888
      2 C          62.3330   90.2566   10.9598 C.ar    1  UNL1        0.0538
      3 C          61.4820   89.2685   10.2185 C.ar    1  UNL1        0.1388
      4 N          61.5712   87.8074   10.5461 N.ar    1  UNL1       -0.1948
      5 C          62.5114   87.3345   11.6150 C.ar    1  UNL1        0.2539
      6 N          63.3623   88.3226   12.3562 N.ar    1  UNL1       -0.2098
      7 N          62.6006   85.8734   11.9426 N.ar    1  UNL1       -0.2008
      8 N          62.4707   85.2664   13.3081 N.ar    1  UNL1       -0.1673
      9 C          62.6251   83.7807   13.1717 C.ar    1  UNL1        0.0806
     10 C          62.5648   82.7817   14.2889 C.3     1  UNL1        0.0540
     11 C          62.8505   83.4693   11.7217 C.ar    1  UNL1        0.0313
     12 C          62.8354   84.7627   10.9622 C.ar    1  UNL1        0.0651
     13 C          63.0222   84.9181    9.4820 C.3     1  UNL1        0.0523
     14 C          65.7450   92.8022   12.7556 C.ar    1  UNL1        0.1578
     15 C          65.8261   92.7480   14.2524 C.ar    1  UNL1        0.1356
     16 N          65.0562   91.7057   15.0080 N.ar    1  UNL1       -0.2391
     17 C          64.2052   90.7176   14.2668 C.ar    1  UNL1        0.1006
     18 C          64.1241   90.7718   12.7700 C.ar    1  UNL1        0.0400
     19 C          64.8940   91.8141   12.0144 C.ar    1  UNL1        0.0416
     20 O          66.5148   93.8446   12.0001 O.3     1  UNL1       -0.4712
     21 C          66.2663   94.0450   10.5345 C.3     1  UNL1        0.2374
     22 C          67.3547   94.5881    9.6566 C.3     1  UNL1        0.1894
     23 C          68.7862   92.4664    9.2102 C.3     1  UNL1        0.1743
     24 O          68.6912   93.9086    9.6117 O.3     1  UNL1       -0.3471
     25 N          60.5419   89.7414    9.1497 N.am    1  UNL1       -0.2692
     26 C          60.0368   88.7793    8.1157 C.2     1  UNL1        0.2277
     27 C          59.0967   89.2523    7.0469 C.3     1  UNL1        0.0950
     28 O          60.4718   87.3442    8.1505 O.2     1  UNL1       -0.2747
     29 H          60.2564   90.6834    9.1268 H       1  UNL1        0.1563
@<TRIPOS>BOND
     1    23    24    1
     2    24    22    1
     3    22    21    1
     4    21    20    1
     5    20    14    1
     6    14    15   ar
     7    15    16   ar
     8    16    17   ar
     9    17    18   ar
    10    18     1    1
    11     1     2   ar
    12     2     3   ar
    13     3    25    1
    14    25    26   am
    15    26    27    1
    16    26    28    2
    17     3     4   ar
    18     4     5   ar
    19     5     7    1
    20     7     8   ar
    21     8     9   ar
    22     9    10    1
    23     9    11   ar
    24    11    12   ar
    25    12    13    1
    26     5     6   ar
    27    18    19   ar
    28    19    14   ar
    29     6     1   ar
    30    12     7   ar
    31    25    29    1
@<TRIPOS>MOLECULE
*****
 29 31 0 0 0
SMALL
GASTEIGER

@<TRIPOS>ATOM
      1 C          63.0896   88.9001   12.1223 C.ar    1  UNL1        0.0888
      2 C          61.9359   88.9286   11.1641 C.ar    1  UNL1        0.0538
      3 C          61.1796   87.6686   10.8633 C.ar    1  UNL1        0.1388
      4 N          61.5770   86.3802   11.5205 N.ar    1  UNL1       -0.1948
      5 C          62.7308   86.3517   12.4787 C.ar    1  UNL1        0.2539
      6 N          63.4871   87.6117   12.7796 N.ar    1  UNL1       -0.2098
      7 N          63.1282   85.0633   13.1360 N.ar    1  UNL1       -0.2008
      8 N          62.8970   83.6861   12.5884 N.ar    1  UNL1       -0.1673
      9 C          63.4525   82.6975   13.5702 C.ar    1  UNL1        0.0806
     10 C          63.4363   81.2048   13.4234 C.3     1  UNL1        0.0540
     11 C          64.0272   83.4637   14.7247 C.ar    1  UNL1        0.0313
     12 C          63.8267   84.9258   14.4563 C.ar    1  UNL1        0.0651
     13 C          64.2504   86.0526   15.3511 C.3     1  UNL1        0.0523
     14 C          64.9456   92.3713   11.6163 C.ar    1  UNL1        0.1578
     15 C          65.3586   92.6799   13.0248 C.ar    1  UNL1        0.1356
     16 N          65.0153   91.7285   14.1326 N.ar    1  UNL1       -0.2391
     17 C          64.2590   90.4686   13.8317 C.ar    1  UNL1        0.1006
     18 C          63.8460   90.1601   12.4232 C.ar    1  UNL1        0.0400
     19 C          64.1893   91.1114   11.3154 C.ar    1  UNL1        0.0416
     20 O          65.2888   93.3227   10.5085 O.3     1  UNL1       -0.4712
     21 C          66.2673   94.4336   10.7502 C.3     1  UNL1        0.2374
     22 C          67.3131   94.7488    9.7221 C.3     1  UNL1        0.1894
     23 C          68.5661   92.5085    9.3206 C.3     1  UNL1        0.1743
     24 O          68.5904   93.9631    9.6862 O.3     1  UNL1       -0.3471
     25 N          60.0258   87.6971    9.9051 N.am    1  UNL1       -0.2692
     26 C          60.0910   86.9112    8.6291 C.2     1  UNL1        0.2277
     27 C          58.9373   86.9397    7.6710 C.3     1  UNL1        0.0950
     28 O          61.3099   86.0968    8.3113 O.2     1  UNL1       -0.2747
     29 H          59.2258   88.2316   10.1137 H       1  UNL1        0.1563
@<TRIPOS>BOND
     1    23    24    1
     2    24    22    1
     3    22    21    1
     4    21    20    1
     5    20    14    1
     6    14    15   ar
     7    15    16   ar
     8    16    17   ar
     9    17    18   ar
    10    18     1    1
    11     1     2   ar
    12     2     3   ar
    13     3    25    1
    14    25    26   am
    15    26    27    1
    16    26    28    2
    17     3     4   ar
    18     4     5   ar
    19     5     7    1
    20     7     8   ar
    21     8     9   ar
    22     9    10    1
    23     9    11   ar
    24    11    12   ar
    25    12    13    1
    26     5     6   ar
    27    18    19   ar
    28    19    14   ar
    29     6     1   ar
    30    12     7   ar
    31    25    29    1
@<TRIPOS>MOLECULE
*****
 29 31 0 0 0
SMALL
GASTEIGER

@<TRIPOS>ATOM
      1 C          63.7291   88.7843   13.9060 C.ar    1  UNL1        0.0888
      2 C          64.1705   87.3999   14.2779 C.ar    1  UNL1        0.0538
      3 C          63.7530   86.2287   13.4387 C.ar    1  UNL1        0.1388
      4 N          62.8942   86.4421   12.2276 N.ar    1  UNL1       -0.1948
      5 C          62.4528   87.8267   11.8557 C.ar    1  UNL1        0.2539
      6 N          62.8703   88.9978   12.6949 N.ar    1  UNL1       -0.2098
      7 N          61.5939   88.0401   10.6445 N.ar    1  UNL1       -0.2008
      8 N          60.6741   87.0291   10.0267 N.ar    1  UNL1       -0.1673
      9 C          60.0158   87.6662    8.8389 C.ar    1  UNL1        0.0806
     10 C          59.0194   87.0131    7.9274 C.3     1  UNL1        0.0540
     11 C          60.5288   89.0709    8.7226 C.ar    1  UNL1        0.0313
     12 C          61.5041   89.3020    9.8386 C.ar    1  UNL1        0.0651
     13 C          62.2574   90.5721   10.1023 C.3     1  UNL1        0.0523
     14 C          65.7021   91.9981   15.1425 C.ar    1  UNL1        0.1578
     15 C          64.9815   92.2977   16.4235 C.ar    1  UNL1        0.1356
     16 N          63.8435   91.4261   16.8653 N.ar    1  UNL1       -0.2391
     17 C          63.4260   90.2550   16.0262 C.ar    1  UNL1        0.1006
     18 C          64.1466   89.9555   14.7452 C.ar    1  UNL1        0.0400
     19 C          65.2846   90.8270   14.3034 C.ar    1  UNL1        0.0416
     20 O          66.8402   92.8697   14.7007 O.3     1  UNL1       -0.4712
     21 C          66.5981   93.9806   13.7223 C.3     1  UNL1        0.2374
     22 C          66.4696   93.6766   12.2591 C.3     1  UNL1        0.1894
     23 C          67.4491   92.5281   10.1445 C.3     1  UNL1        0.1743
     24 O          67.3219   92.6106   11.6368 O.3     1  UNL1       -0.3471
     25 N          64.1944   84.8443   13.8106 N.am    1  UNL1       -0.2692
     26 C          63.2852   83.9556   14.6066 C.2     1  UNL1        0.2277
     27 C          63.7266   82.5711   14.9785 C.3     1  UNL1        0.0950
     28 O          61.9345   84.4514   15.0306 O.2     1  UNL1       -0.2747
     29 H          65.0809   84.5188   13.5323 H       1  UNL1        0.1563
@<TRIPOS>BOND
     1    23    24    1
     2    24    22    1
     3    22    21    1
     4    21    20    1
     5    20    14    1
     6    14    15   ar
     7    15    16   ar
     8    16    17   ar
     9    17    18   ar
    10    18     1    1
    11     1     2   ar
    12     2     3   ar
    13     3    25    1
    14    25    26   am
    15    26    27    1
    16    26    28    2
    17     3     4   ar
    18     4     5   ar
    19     5     7    1
    20     7     8   ar
    21     8     9   ar
    22     9    10    1
    23     9    11   ar
    24    11    12   ar
    25    12    13    1
    26     5     6   ar
    27    18    19   ar
    28    19    14   ar
    29     6     1   ar
    30    12     7   ar
    31    25    29    1
@<TRIPOS>MOLECULE
*****
 29 31 0 0 0
SMALL
GASTEIGER

@<TRIPOS>ATOM
      1 C          63.7756   89.1193   13.7038 C.ar    1  UNL1        0.0888
      2 C          63.1781   89.4396   12.3658 C.ar    1  UNL1        0.0538
      3 C          62.7078   88.3322   11.4699 C.ar    1  UNL1        0.1388
      4 N          62.8351   86.9046   11.9121 N.ar    1  UNL1       -0.1948
      5 C          63.4326   86.5843   13.2502 C.ar    1  UNL1        0.2539
      6 N          63.9029   87.6916   14.1460 N.ar    1  UNL1       -0.2098
      7 N          63.5599   85.1566   13.6924 N.ar    1  UNL1       -0.2008
      8 N          63.6407   83.9589   12.7930 N.ar    1  UNL1       -0.1673
      9 C          63.7594   82.7380   13.6563 C.ar    1  UNL1        0.0806
     10 C          63.8667   81.3225   13.1717 C.3     1  UNL1        0.0540
     11 C          63.7521   83.1812   15.0893 C.ar    1  UNL1        0.0313
     12 C          63.6288   84.6759   15.1116 C.ar    1  UNL1        0.0651
     13 C          63.5825   85.5386   16.3379 C.3     1  UNL1        0.0523
     14 C          66.0336   92.0019   15.2342 C.ar    1  UNL1        0.1578
     15 C          65.1864   92.4414   16.3914 C.ar    1  UNL1        0.1356
     16 N          63.8690   91.7735   16.6528 N.ar    1  UNL1       -0.2391
     17 C          63.3987   90.6662   15.7570 C.ar    1  UNL1        0.1006
     18 C          64.2459   90.2267   14.5998 C.ar    1  UNL1        0.0400
     19 C          65.5633   90.8946   14.3384 C.ar    1  UNL1        0.0416
     20 O          67.3510   92.6698   14.9728 O.3     1  UNL1       -0.4712
     21 C          68.3583   92.0157   14.0742 C.3     1  UNL1        0.2374
     22 C          68.1329   91.9856   12.5916 C.3     1  UNL1        0.1894
     23 C          66.2180   92.5949   10.9447 C.3     1  UNL1        0.1743
     24 O          67.2532   93.0148   11.9456 O.3     1  UNL1       -0.3471
     25 N          62.1103   88.6525   10.1319 N.am    1  UNL1       -0.2692
     26 C          60.6215   88.6293    9.9504 C.2     1  UNL1        0.2277
     27 C          60.0239   88.9496    8.6124 C.3     1  UNL1        0.0950
     28 O          59.7302   88.2857   11.1069 O.2     1  UNL1       -0.2747
     29 H          62.6952   88.8780    9.3728 H       1  UNL1        0.1563
@<TRIPOS>BOND
     1    23    24    1
     2    24    22    1
     3    22    21    1
     4    21    20    1
     5    20    14    1
     6    14    15   ar
     7    15    16   ar
     8    16    17   ar
     9    17    18   ar
    10    18     1    1
    11     1     2   ar
    12     2     3   ar
    13     3    25    1
    14    25    26   am
    15    26    27    1
    16    26    28    2
    17     3     4   ar
    18     4     5   ar
    19     5     7    1
    20     7     8   ar
    21     8     9   ar
    22     9    10    1
    23     9    11   ar
    24    11    12   ar
    25    12    13    1
    26     5     6   ar
    27    18    19   ar
    28    19    14   ar
    29     6     1   ar
    30    12     7   ar
    31    25    29    1
@<TRIPOS>MOLECULE
*****
 29 31 0 0 0
SMALL
GASTEIGER

@<TRIPOS>ATOM
      1 C          62.9366   88.5813   12.0997 C.ar    1  UNL1        0.0888
      2 C          61.8000   88.5864   11.1208 C.ar    1  UNL1        0.0538
      3 C          61.0620   87.3151   10.8218 C.ar    1  UNL1        0.1388
      4 N          61.4606   86.0388   11.5017 N.ar    1  UNL1       -0.1948
      5 C          62.5973   86.0338   12.4806 C.ar    1  UNL1        0.2539
      6 N          63.3352   87.3050   12.7795 N.ar    1  UNL1       -0.2098
      7 N          62.9959   84.7575   13.1605 N.ar    1  UNL1       -0.2008
      8 N          62.7116   83.3698   12.6673 N.ar    1  UNL1       -0.1673
      9 C          63.2888   82.3995   13.6549 C.ar    1  UNL1        0.0806
     10 C          63.2344   80.9037   13.5562 C.3     1  UNL1        0.0540
     11 C          63.9298   83.1876   14.7585 C.ar    1  UNL1        0.0313
     12 C          63.7487   84.6449   14.4529 C.ar    1  UNL1        0.0651
     13 C          64.2352   85.7888   15.2925 C.3     1  UNL1        0.0523
     14 C          64.9520   91.3715   14.0752 C.ar    1  UNL1        0.1578
     15 C          65.1506   92.3949   12.9967 C.ar    1  UNL1        0.1356
     16 N          64.6112   92.1471   11.6192 N.ar    1  UNL1       -0.2391
     17 C          63.8732   90.8759   11.3201 C.ar    1  UNL1        0.1006
     18 C          63.6746   89.8525   12.3987 C.ar    1  UNL1        0.0400
     19 C          64.2140   90.1003   13.7762 C.ar    1  UNL1        0.0416
     20 O          65.4914   91.6193   15.4528 O.3     1  UNL1       -0.4712
     21 C          66.6662   92.5318   15.6453 C.3     1  UNL1        0.2374
     22 C          68.0295   92.1064   15.1865 C.3     1  UNL1        0.1894
     23 C          69.2692   94.2437   15.9896 C.3     1  UNL1        0.1743
     24 O          69.1106   93.1291   14.9984 O.3     1  UNL1       -0.3471
     25 N          59.9255   87.3202    9.8430 N.am    1  UNL1       -0.2692
     26 C          60.0944   86.6860    8.4942 C.2     1  UNL1        0.2277
     27 C          58.9579   86.6911    7.5153 C.3     1  UNL1        0.0950
     28 O          61.4000   86.0468    8.1242 O.2     1  UNL1       -0.2747
     29 H          59.0686   87.7397   10.0858 H       1  UNL1        0.1563
@<TRIPOS>BOND
     1    23    24    1
     2    24    22    1
     3    22    21    1
     4    21    20    1
     5    20    14    1
     6    14    15   ar
     7    15    16   ar
     8    16    17   ar
     9    17    18   ar
    10    18     1    1
    11     1     2   ar
    12     2     3   ar
    13     3    25    1
    14    25    26   am
    15    26    27    1
    16    26    28    2
    17     3     4   ar
    18     4     5   ar
    19     5     7    1
    20     7     8   ar
    21     8     9   ar
    22     9    10    1
    23     9    11   ar
    24    11    12   ar
    25    12    13    1
    26     5     6   ar
    27    18    19   ar
    28    19    14   ar
    29     6     1   ar
    30    12     7   ar
    31    25    29    1
@<TRIPOS>MOLECULE
*****
 29 31 0 0 0
SMALL
GASTEIGER

@<TRIPOS>ATOM
      1 C          64.2891   89.6559   13.4973 C.ar    1  UNL1        0.0888
      2 C          64.5087   88.4444   14.3540 C.ar    1  UNL1        0.0538
      3 C          63.8331   87.1501   14.0100 C.ar    1  UNL1        0.1388
      4 N          62.9379   87.0673   12.8092 N.ar    1  UNL1       -0.1948
      5 C          62.7183   88.2789   11.9525 C.ar    1  UNL1        0.2539
      6 N          63.3939   89.5732   12.2965 N.ar    1  UNL1       -0.2098
      7 N          61.8231   88.1962   10.7518 N.ar    1  UNL1       -0.2008
      8 N          61.6625   87.0068    9.8520 N.ar    1  UNL1       -0.1673
      9 C          60.6715   87.3638    8.7841 C.ar    1  UNL1        0.0806
     10 C          60.2129   86.4680    7.6718 C.3     1  UNL1        0.0540
     11 C          60.2196   88.7739    9.0239 C.ar    1  UNL1        0.0313
     12 C          60.9313   89.2883   10.2399 C.ar    1  UNL1        0.0651
     13 C          60.7782   90.6549   10.8390 C.3     1  UNL1        0.0523
     14 C          66.2185   93.1009   13.0979 C.ar    1  UNL1        0.1578
     15 C          66.3160   93.5389   14.5292 C.ar    1  UNL1        0.1356
     16 N          65.7378   92.6825   15.6166 N.ar    1  UNL1       -0.2391
     17 C          65.0622   91.3882   15.2726 C.ar    1  UNL1        0.1006
     18 C          64.9648   90.9503   13.8413 C.ar    1  UNL1        0.0400
     19 C          65.5429   91.8067   12.7539 C.ar    1  UNL1        0.0416
     20 O          66.7967   93.9573   12.0105 O.3     1  UNL1       -0.4712
     21 C          66.2158   93.9084   10.6285 C.3     1  UNL1        0.2374
     22 C          67.0312   94.3657    9.4555 C.3     1  UNL1        0.1894
     23 C          68.8729   92.5376    9.3277 C.3     1  UNL1        0.1743
     24 O          68.4785   93.9846    9.3540 O.3     1  UNL1       -0.3471
     25 N          64.0527   85.9386   14.8667 N.am    1  UNL1       -0.2692
     26 C          64.0706   84.5736   14.2450 C.2     1  UNL1        0.2277
     27 C          64.2902   83.3621   15.1017 C.3     1  UNL1        0.0950
     28 O          63.8690   84.4201   12.7666 O.2     1  UNL1       -0.2747
     29 H          64.1850   86.0393   15.8370 H       1  UNL1        0.1563
@<TRIPOS>BOND
     1    23    24    1
     2    24    22    1
     3    22    21    1
     4    21    20    1
     5    20    14    1
     6    14    15   ar
     7    15    16   ar
     8    16    17   ar
     9    17    18   ar
    10    18     1    1
    11     1     2   ar
    12     2     3   ar
    13     3    25    1
    14    25    26   am
    15    26    27    1
    16    26    28    2
    17     3     4   ar
    18     4     5   ar
    19     5     7    1
    20     7     8   ar
    21     8     9   ar
    22     9    10    1
    23     9    11   ar
    24    11    12   ar
    25    12    13    1
    26     5     6   ar
    27    18    19   ar
    28    19    14   ar
    29     6     1   ar
    30    12     7   ar
    31    25    29    1
@<TRIPOS>MOLECULE
*****
 29 31 0 0 0
SMALL
GASTEIGER

@<TRIPOS>ATOM
      1 C          63.0343   88.0254   12.2371 C.ar    1  UNL1        0.0888
      2 C          62.3794   88.4075   10.9430 C.ar    1  UNL1        0.0538
      3 C          61.8381   87.3443   10.0337 C.ar    1  UNL1        0.1388
      4 N          61.9519   85.8990   10.4186 N.ar    1  UNL1       -0.1948
      5 C          62.6069   85.5169   11.7129 C.ar    1  UNL1        0.2539
      6 N          63.1481   86.5801   12.6221 N.ar    1  UNL1       -0.2098
      7 N          62.7207   84.0717   12.0978 N.ar    1  UNL1       -0.2008
      8 N          62.1355   83.4373   13.3247 N.ar    1  UNL1       -0.1673
      9 C          62.4927   81.9805   13.3086 C.ar    1  UNL1        0.0806
     10 C          62.1110   80.9676   14.3470 C.3     1  UNL1        0.0540
     11 C          63.2987   81.7146   12.0718 C.ar    1  UNL1        0.0313
     12 C          63.4396   83.0069   11.3235 C.ar    1  UNL1        0.0651
     13 C          64.1710   83.2006   10.0283 C.3     1  UNL1        0.0523
     14 C          64.6193   91.4439   13.4830 C.ar    1  UNL1        0.1578
     15 C          64.6581   91.2149   14.9649 C.ar    1  UNL1        0.1356
     16 N          64.1556   89.9228   15.5375 N.ar    1  UNL1       -0.2391
     17 C          63.6144   88.8596   14.6283 C.ar    1  UNL1        0.1006
     18 C          63.5756   89.0886   13.1464 C.ar    1  UNL1        0.0400
     19 C          64.0780   90.3807   12.5738 C.ar    1  UNL1        0.0416
     20 O          65.1217   92.7360   12.9103 O.3     1  UNL1       -0.4712
     21 C          66.5841   92.9127   12.6276 C.3     1  UNL1        0.2374
     22 C          67.5946   92.0713   13.3494 C.3     1  UNL1        0.1894
     23 C          67.9448   93.4086   15.5491 C.3     1  UNL1        0.1743
     24 O          68.5127   92.6998   14.3554 O.3     1  UNL1       -0.3471
     25 N          61.1831   87.7265    8.7395 N.am    1  UNL1       -0.2692
     26 C          60.1756   88.8373    8.7081 C.2     1  UNL1        0.2277
     27 C          59.5206   89.2194    7.4139 C.3     1  UNL1        0.0950
     28 O          59.8230   89.5659    9.9709 O.2     1  UNL1       -0.2747
     29 H          61.4145   87.2482    7.9106 H       1  UNL1        0.1563
@<TRIPOS>BOND
     1    23    24    1
     2    24    22    1
     3    22    21    1
     4    21    20    1
     5    20    14    1
     6    14    15   ar
     7    15    16   ar
     8    16    17   ar
     9    17    18   ar
    10    18     1    1
    11     1     2   ar
    12     2     3   ar
    13     3    25    1
    14    25    26   am
    15    26    27    1
    16    26    28    2
    17     3     4   ar
    18     4     5   ar
    19     5     7    1
    20     7     8   ar
    21     8     9   ar
    22     9    10    1
    23     9    11   ar
    24    11    12   ar
    25    12    13    1
    26     5     6   ar
    27    18    19   ar
    28    19    14   ar
    29     6     1   ar
    30    12     7   ar
    31    25    29    1
@<TRIPOS>MOLECULE
*****
 29 31 0 0 0
SMALL
GASTEIGER

@<TRIPOS>ATOM
      1 C          61.8062   87.3111   10.7369 C.ar    1  UNL1        0.0888
      2 C          62.4403   88.5600   11.2736 C.ar    1  UNL1        0.0538
      3 C          63.3047   88.4957   12.4979 C.ar    1  UNL1        0.1388
      4 N          63.5349   87.1826   13.1854 N.ar    1  UNL1       -0.1948
      5 C          62.9007   85.9337   12.6486 C.ar    1  UNL1        0.2539
      6 N          62.0364   85.9979   11.4244 N.ar    1  UNL1       -0.2098
      7 N          63.1309   84.6205   13.3361 N.ar    1  UNL1       -0.2008
      8 N          62.8038   83.2657   12.7816 N.ar    1  UNL1       -0.1673
      9 C          63.1993   82.2395   13.8016 C.ar    1  UNL1        0.0806
     10 C          63.0496   80.7536   13.6613 C.3     1  UNL1        0.0540
     11 C          63.7708   82.9600   14.9866 C.ar    1  UNL1        0.0313
     12 C          63.7285   84.4316   14.6989 C.ar    1  UNL1        0.0651
     13 C          64.2009   85.5227   15.6134 C.3     1  UNL1        0.0523
     14 C          59.6523   88.7692    7.7394 C.ar    1  UNL1        0.1578
     15 C          59.2132   87.5038    7.0641 C.ar    1  UNL1        0.1356
     16 N          59.6385   86.1742    7.6130 N.ar    1  UNL1       -0.2391
     17 C          60.5028   86.1100    8.8372 C.ar    1  UNL1        0.1006
     18 C          60.9418   87.3753    9.5126 C.ar    1  UNL1        0.0400
     19 C          60.5166   88.7049    8.9636 C.ar    1  UNL1        0.0416
     20 O          59.2270   90.0988    7.1905 O.3     1  UNL1       -0.4712
     21 C          59.1039   90.2936    5.7084 C.3     1  UNL1        0.2374
     22 C          58.2842   91.4270    5.1664 C.3     1  UNL1        0.1894
     23 C          59.8311   92.6646    3.4855 C.3     1  UNL1        0.1743
     24 O          58.9573   92.6855    4.7045 O.3     1  UNL1       -0.3471
     25 N          63.9388   89.7446   13.0346 N.am    1  UNL1       -0.2692
     26 C          63.9271   90.0175   14.5095 C.2     1  UNL1        0.2277
     27 C          64.5612   91.2664   15.0463 C.3     1  UNL1        0.0950
     28 O          63.2813   89.0415   15.4477 O.2     1  UNL1       -0.2747
     29 H          64.3627   90.3852   12.4189 H       1  UNL1        0.1563
@<TRIPOS>BOND
     1    23    24    1
     2    24    22    1
     3    22    21    1
     4    21    20    1
     5    20    14    1
     6    14    15   ar
     7    15    16   ar
     8    16    17   ar
     9    17    18   ar
    10    18     1    1
    11     1     2   ar
    12     2     3   ar
    13     3    25    1
    14    25    26   am
    15    26    27    1
    16    26    28    2
    17     3     4   ar
    18     4     5   ar
    19     5     7    1
    20     7     8   ar
    21     8     9   ar
    22     9    10    1
    23     9    11   ar
    24    11    12   ar
    25    12    13    1
    26     5     6   ar
    27    18    19   ar
    28    19    14   ar
    29     6     1   ar
    30    12     7   ar
    31    25    29    1
@<TRIPOS>MOLECULE
*****
 29 31 0 0 0
SMALL
GASTEIGER

@<TRIPOS>ATOM
      1 C          61.7818   87.2011   10.6570 C.ar    1  UNL1        0.0888
      2 C          61.9917   85.9141   11.3982 C.ar    1  UNL1        0.0538
      3 C          62.8494   85.8884   12.6286 C.ar    1  UNL1        0.1388
      4 N          63.4971   87.1499   13.1177 N.ar    1  UNL1       -0.1948
      5 C          63.2871   88.4370   12.3764 C.ar    1  UNL1        0.2539
      6 N          62.4294   88.4625   11.1461 N.ar    1  UNL1       -0.2098
      7 N          63.9347   89.6984   12.8655 N.ar    1  UNL1       -0.2008
      8 N          64.5968   89.8904   14.1978 N.ar    1  UNL1       -0.1673
      9 C          65.1053   91.3000   14.2639 C.ar    1  UNL1        0.0806
     10 C          65.8337   91.9213   15.4187 C.3     1  UNL1        0.0540
     11 C          64.7575   91.9793   12.9726 C.ar    1  UNL1        0.0313
     12 C          64.0341   90.9895   12.1083 C.ar    1  UNL1        0.0651
     13 C          63.5032   91.2457   10.7290 C.3     1  UNL1        0.0523
     14 C          59.5094   88.5526    7.6973 C.ar    1  UNL1        0.1578
     15 C          59.2088   87.2780    6.9659 C.ar    1  UNL1        0.1356
     16 N          59.7659   85.9777    7.4648 N.ar    1  UNL1       -0.2391
     17 C          60.6235   85.9521    8.6952 C.ar    1  UNL1        0.1006
     18 C          60.9241   87.2267    9.4265 C.ar    1  UNL1        0.0400
     19 C          60.3670   88.5270    8.9276 C.ar    1  UNL1        0.0416
     20 O          58.9524   89.8529    7.1983 O.3     1  UNL1       -0.4712
     21 C          59.2853   90.3303    5.8159 C.3     1  UNL1        0.2374
     22 C          58.3811   91.3044    5.1207 C.3     1  UNL1        0.1894
     23 C          59.8540   92.6200    3.4324 C.3     1  UNL1        0.1743
     24 O          58.9288   92.6054    4.6130 O.3     1  UNL1       -0.3471
     25 N          63.0594   84.6014   13.3698 N.am    1  UNL1       -0.2692
     26 C          63.7484   83.4518   12.6962 C.2     1  UNL1        0.2277
     27 C          63.9584   82.1648   13.4374 C.3     1  UNL1        0.0950
     28 O          64.2274   83.5892   11.2815 O.2     1  UNL1       -0.2747
     29 H          62.7450   84.5112   14.2983 H       1  UNL1        0.1563
@<TRIPOS>BOND
     1    23    24    1
     2    24    22    1
     3    22    21    1
     4    21    20    1
     5    20    14    1
     6    14    15   ar
     7    15    16   ar
     8    16    17   ar
     9    17    18   ar
    10    18     1    1
    11     1     2   ar
    12     2     3   ar
    13     3    25    1
    14    25    26   am
    15    26    27    1
    16    26    28    2
    17     3     4   ar
    18     4     5   ar
    19     5     7    1
    20     7     8   ar
    21     8     9   ar
    22     9    10    1
    23     9    11   ar
    24    11    12   ar
    25    12    13    1
    26     5     6   ar
    27    18    19   ar
    28    19    14   ar
    29     6     1   ar
    30    12     7   ar
    31    25    29    1
