@<TRIPOS>MOLECULE
*****
 30 33 0 0 0
SMALL
GASTEIGER

@<TRIPOS>ATOM
      1 C          62.7777   89.2535   12.0713 C.ar    1  UNL1        0.1434
      2 C          63.5052   88.3269   12.9999 C.ar    1  UNL1        0.0345
      3 C          63.5015   86.8496   12.7402 C.ar    1  UNL1        0.0074
      4 C          62.7703   86.2988   11.5519 C.ar    1  UNL1        0.0568
      5 C          62.0428   87.2253   10.6234 C.ar    1  UNL1        0.0441
      6 C          62.0465   88.7027   10.8831 C.ar    1  UNL1        0.1673
      7 C          62.7666   84.8214   11.2921 C.2     1  UNL1        0.2493
      8 O          62.8801   84.3066    9.8879 O.2     1  UNL1       -0.2699
      9 N          62.6493   83.8590   12.4367 N.am    1  UNL1       -0.2709
     10 C          62.5357   84.3740   13.8410 C.3     1  UNL1        0.1258
     11 C          62.4185   83.4116   14.9855 C.3     1  UNL1        0.1637
     12 O          62.4147   81.9342   14.7258 O.3     1  UNL1       -0.3501
     13 C          62.5282   81.4193   13.3216 C.3     1  UNL1        0.1637
     14 C          62.6455   82.3817   12.1770 C.3     1  UNL1        0.1258
     15 N          62.7814   90.7308   12.3310 N.pl3   1  UNL1       -0.1895
     16 H          61.9687   91.2616   12.1666 H       1  UNL1        0.2524
     17 C          66.2434   92.6704   12.3869 C.2     1  UNL1        0.2958
     18 N          65.0014   92.0017   11.8766 N.2     1  UNL1       -0.0277
     19 C          64.0234   91.3995   12.8414 C.cat   1  UNL1        0.4671
     20 N          64.2874   91.4660   14.3165 N.2     1  UNL1        0.0298
     21 C          65.5293   92.1346   14.8268 C.2     1  UNL1        0.3719
     22 N          66.0539   92.3522   16.2151 N.2     1  UNL1       -0.0339
     23 C          67.3562   93.0888   16.1083 C.2     1  UNL1        0.2323
     24 C          67.6364   93.3266   14.6540 C.2     1  UNL1        0.0474
     25 C          66.5073   92.7369   13.8620 C.3     1  UNL1        0.2312
     26 O          67.2214   93.2726   11.4221 O.2     1  UNL1       -0.4510
     27 C          68.5741   92.3691    9.3963 C.3     1  UNL1        0.0513
     28 C          67.2683   92.7903   10.0025 C.3     1  UNL1        0.2083
     29 O          61.3191   89.6293    9.9545 O.3     1  UNL1       -0.4688
     30 C          60.2160   89.1048    9.0838 C.3     1  UNL1        0.2526
@<TRIPOS>BOND
     1    27    28    1
     2    28    26    1
     3    26    17    1
     4    17    18    2
     5    18    19    1
     6    19    15    1
     7    15     1    1
     8     1     2   ar
     9     2     3   ar
    10     3     4   ar
    11     4     7    1
    12     7     8    2
    13     7     9   am
    14     9    10    1
    15    10    11    1
    16    11    12    1
    17    12    13    1
    18    13    14    1
    19     4     5   ar
    20     5     6   ar
    21     6    29    1
    22    29    30    1
    23    19    20    2
    24    20    21    1
    25    21    22    2
    26    22    23    1
    27    23    24    2
    28    24    25    1
    29    25    17    1
    30     6     1   ar
    31    25    21    1
    32    14     9    1
    33    15    16    1
@<TRIPOS>MOLECULE
*****
 30 33 0 0 0
SMALL
GASTEIGER

@<TRIPOS>ATOM
      1 C          63.1673   88.1280   12.4683 C.ar    1  UNL1        0.1434
      2 C          63.9076   87.7331   13.7117 C.ar    1  UNL1        0.0345
      3 C          64.4128   88.7880   14.6508 C.ar    1  UNL1        0.0074
      4 C          64.1778   90.2379   14.3465 C.ar    1  UNL1        0.0568
      5 C          63.4375   90.6328   13.1031 C.ar    1  UNL1        0.0441
      6 C          62.9323   89.5779   12.1640 C.ar    1  UNL1        0.1673
      7 C          64.6830   91.2929   15.2855 C.2     1  UNL1        0.2493
      8 O          63.8161   91.7716   16.4121 O.2     1  UNL1       -0.2699
      9 N          66.0551   91.8692   15.0978 N.am    1  UNL1       -0.2709
     10 C          66.9219   91.3904   13.9710 C.3     1  UNL1        0.1258
     11 C          68.2940   91.9667   13.7834 C.3     1  UNL1        0.1637
     12 O          68.7992   93.0218   14.7224 O.3     1  UNL1       -0.3501
     13 C          67.9324   93.5005   15.8490 C.3     1  UNL1        0.1637
     14 C          66.5603   92.9242   16.0368 C.3     1  UNL1        0.1258
     15 N          62.6621   87.0730   11.5292 N.pl3   1  UNL1       -0.1895
     16 H          62.3054   87.3285   10.6479 H       1  UNL1        0.2524
     17 C          62.5124   83.8001   13.7688 C.2     1  UNL1        0.2958
     18 N          62.4741   85.2442   13.3650 N.2     1  UNL1       -0.0277
     19 C          62.7003   85.6288   11.9330 C.cat   1  UNL1        0.4671
     20 N          62.9648   84.5693   10.9046 N.2     1  UNL1        0.0298
     21 C          63.0031   83.1252   11.3084 C.2     1  UNL1        0.3719
     22 N          63.2392   81.8693   10.5229 N.2     1  UNL1       -0.0339
     23 C          63.1589   80.7086   11.4695 C.2     1  UNL1        0.2323
     24 C          62.8731   81.2470   12.8401 C.2     1  UNL1        0.0474
     25 C          62.7768   82.7406   12.7405 C.3     1  UNL1        0.2312
     26 O          62.2861   83.4155   15.2009 O.2     1  UNL1       -0.4510
     27 C          62.3343   85.5095   16.7381 C.3     1  UNL1        0.0513
     28 C          62.9321   84.2051   16.3006 C.3     1  UNL1        0.2083
     29 O          62.1920   89.9728   10.9206 O.3     1  UNL1       -0.4688
     30 C          60.7098   90.1974   10.9696 C.3     1  UNL1        0.2526
@<TRIPOS>BOND
     1    27    28    1
     2    28    26    1
     3    26    17    1
     4    17    18    2
     5    18    19    1
     6    19    15    1
     7    15     1    1
     8     1     2   ar
     9     2     3   ar
    10     3     4   ar
    11     4     7    1
    12     7     8    2
    13     7     9   am
    14     9    10    1
    15    10    11    1
    16    11    12    1
    17    12    13    1
    18    13    14    1
    19     4     5   ar
    20     5     6   ar
    21     6    29    1
    22    29    30    1
    23    19    20    2
    24    20    21    1
    25    21    22    2
    26    22    23    1
    27    23    24    2
    28    24    25    1
    29    25    17    1
    30     6     1   ar
    31    25    21    1
    32    14     9    1
    33    15    16    1
@<TRIPOS>MOLECULE
*****
 30 33 0 0 0
SMALL
GASTEIGER

@<TRIPOS>ATOM
      1 C          62.2816   88.2336   11.3264 C.ar    1  UNL1        0.1434
      2 C          63.0548   87.5469   12.4129 C.ar    1  UNL1        0.0345
      3 C          63.3381   86.0770   12.3176 C.ar    1  UNL1        0.0074
      4 C          62.8482   85.2938   11.1358 C.ar    1  UNL1        0.0568
      5 C          62.0750   85.9805   10.0493 C.ar    1  UNL1        0.0441
      6 C          61.7917   87.4505   10.1446 C.ar    1  UNL1        0.1673
      7 C          63.1315   83.8238   11.0405 C.2     1  UNL1        0.2493
      8 O          63.6404   83.2399    9.7560 O.2     1  UNL1       -0.2699
      9 N          62.9058   82.9379   12.2297 N.am    1  UNL1       -0.2709
     10 C          62.3968   83.5219   13.5142 C.3     1  UNL1        0.1258
     11 C          62.1711   82.6360   14.7033 C.3     1  UNL1        0.1637
     12 O          62.4544   81.1661   14.6080 O.3     1  UNL1       -0.3501
     13 C          62.9633   80.5821   13.3236 C.3     1  UNL1        0.1637
     14 C          63.1890   81.4680   12.1344 C.3     1  UNL1        0.1258
     15 N          61.9983   89.7036   11.4217 N.pl3   1  UNL1       -0.1895
     16 H          61.0840   90.0390   11.2773 H       1  UNL1        0.2524
     17 C          64.6789   91.7948   13.4689 C.2     1  UNL1        0.2958
     18 N          63.5692   90.8360   13.1536 N.2     1  UNL1       -0.0277
     19 C          63.1080   90.6624   11.7369 C.cat   1  UNL1        0.4671
     20 N          63.7563   91.4475   10.6354 N.2     1  UNL1        0.0298
     21 C          64.8660   92.4063   10.9507 C.2     1  UNL1        0.3719
     22 N          65.6887   93.3102   10.0812 N.2     1  UNL1       -0.0339
     23 C          66.6585   94.0425   10.9605 C.2     1  UNL1        0.2323
     24 C          66.4351   93.5912   12.3735 C.2     1  UNL1        0.0474
     25 C          65.3273   92.5799   12.3674 C.3     1  UNL1        0.2312
     26 O          65.1402   91.9685   14.8856 O.2     1  UNL1       -0.4510
     27 C          67.3121   92.8160   16.0320 C.3     1  UNL1        0.0513
     28 C          66.5865   91.7746   15.2325 C.3     1  UNL1        0.2083
     29 O          61.0185   88.1372    9.0581 O.3     1  UNL1       -0.4688
     30 C          59.8677   87.4366    8.3988 C.3     1  UNL1        0.2526
@<TRIPOS>BOND
     1    27    28    1
     2    28    26    1
     3    26    17    1
     4    17    18    2
     5    18    19    1
     6    19    15    1
     7    15     1    1
     8     1     2   ar
     9     2     3   ar
    10     3     4   ar
    11     4     7    1
    12     7     8    2
    13     7     9   am
    14     9    10    1
    15    10    11    1
    16    11    12    1
    17    12    13    1
    18    13    14    1
    19     4     5   ar
    20     5     6   ar
    21     6    29    1
    22    29    30    1
    23    19    20    2
    24    20    21    1
    25    21    22    2
    26    22    23    1
    27    23    24    2
    28    24    25    1
    29    25    17    1
    30     6     1   ar
    31    25    21    1
    32    14     9    1
    33    15    16    1
@<TRIPOS>MOLECULE
*****
 30 33 0 0 0
SMALL
GASTEIGER

@<TRIPOS>ATOM
      1 C          62.9131   89.3229   12.5033 C.ar    1  UNL1        0.1434
      2 C          62.2293   88.8683   11.2480 C.ar    1  UNL1        0.0345
      3 C          62.2138   87.4124   10.8874 C.ar    1  UNL1        0.0074
      4 C          62.8821   86.4110   11.7822 C.ar    1  UNL1        0.0568
      5 C          63.5659   86.8656   13.0375 C.ar    1  UNL1        0.0441
      6 C          63.5814   88.3215   13.3980 C.ar    1  UNL1        0.1673
      7 C          62.8667   84.9550   11.4217 C.2     1  UNL1        0.2493
      8 O          63.0105   84.5356    9.9888 O.2     1  UNL1       -0.2699
      9 N          62.7073   83.9185   12.4942 N.am    1  UNL1       -0.2709
     10 C          62.5634   84.3381   13.9273 C.3     1  UNL1        0.1258
     11 C          62.4041   83.3016   14.9997 C.3     1  UNL1        0.1637
     12 O          62.3886   81.8456   14.6393 O.3     1  UNL1       -0.3501
     13 C          62.5325   81.4261   13.2064 C.3     1  UNL1        0.1637
     14 C          62.6919   82.4625   12.1339 C.3     1  UNL1        0.1258
     15 N          62.9286   90.7788   12.8638 N.pl3   1  UNL1       -0.1895
     16 H          62.0918   91.2975   12.8535 H       1  UNL1        0.2524
     17 C          66.4489   92.5836   12.5472 C.2     1  UNL1        0.2958
     18 N          65.1585   91.9179   12.1709 N.2     1  UNL1       -0.0277
     19 C          64.2191   91.4446   13.2401 C.cat   1  UNL1        0.4671
     20 N          64.5699   91.6371   14.6858 N.2     1  UNL1        0.0298
     21 C          65.8603   92.3029   15.0621 C.2     1  UNL1        0.3719
     22 N          66.4712   92.6279   16.3930 N.2     1  UNL1       -0.0339
     23 C          67.7883   93.3020   16.1461 C.2     1  UNL1        0.2323
     24 C          67.9914   93.3937   14.6628 C.2     1  UNL1        0.0474
     25 C          66.7998   92.7762   13.9928 C.3     1  UNL1        0.2312
     26 O          67.3883   93.0569   11.4779 O.2     1  UNL1       -0.4510
     27 C          68.7383   92.4897    9.3317 C.3     1  UNL1        0.0513
     28 C          67.5459   92.2650   10.2138 C.3     1  UNL1        0.2083
     29 O          64.2652   88.7761   14.6533 O.3     1  UNL1       -0.4688
     30 C          63.5892   88.6018   15.9809 C.3     1  UNL1        0.2526
@<TRIPOS>BOND
     1    27    28    1
     2    28    26    1
     3    26    17    1
     4    17    18    2
     5    18    19    1
     6    19    15    1
     7    15     1    1
     8     1     2   ar
     9     2     3   ar
    10     3     4   ar
    11     4     7    1
    12     7     8    2
    13     7     9   am
    14     9    10    1
    15    10    11    1
    16    11    12    1
    17    12    13    1
    18    13    14    1
    19     4     5   ar
    20     5     6   ar
    21     6    29    1
    22    29    30    1
    23    19    20    2
    24    20    21    1
    25    21    22    2
    26    22    23    1
    27    23    24    2
    28    24    25    1
    29    25    17    1
    30     6     1   ar
    31    25    21    1
    32    14     9    1
    33    15    16    1
@<TRIPOS>MOLECULE
*****
 30 33 0 0 0
SMALL
GASTEIGER

@<TRIPOS>ATOM
      1 C          62.5940   89.2679   11.7105 C.ar    1  UNL1        0.1434
      2 C          62.7439   90.3065   10.6386 C.ar    1  UNL1        0.0345
      3 C          63.6757   91.4644   10.8414 C.ar    1  UNL1        0.0074
      4 C          64.4575   91.5837   12.1159 C.ar    1  UNL1        0.0568
      5 C          64.3076   90.5451   13.1878 C.ar    1  UNL1        0.0441
      6 C          63.3758   89.3872   12.9850 C.ar    1  UNL1        0.1673
      7 C          65.3893   92.7417   12.3188 C.2     1  UNL1        0.2493
      8 O          65.6029   93.7347   11.2151 O.2     1  UNL1       -0.2699
      9 N          66.1073   92.9064   13.6254 N.am    1  UNL1       -0.2709
     10 C          65.8936   91.9133   14.7291 C.3     1  UNL1        0.1258
     11 C          66.6117   92.0782   16.0356 C.3     1  UNL1        0.1637
     12 O          67.5435   93.2360   16.2385 O.3     1  UNL1       -0.3501
     13 C          67.7572   94.2291   15.1349 C.3     1  UNL1        0.1637
     14 C          67.0391   94.0643   13.8283 C.3     1  UNL1        0.1258
     15 N          61.6623   88.1100   11.5077 N.pl3   1  UNL1       -0.1895
     16 H          60.6936   88.2291   11.6369 H       1  UNL1        0.2524
     17 C          62.9018   85.0855    9.2568 C.2     1  UNL1        0.2958
     18 N          62.3576   86.4250    9.6564 N.2     1  UNL1       -0.0277
     19 C          62.2065   86.7704   11.1081 C.cat   1  UNL1        0.4671
     20 N          62.5995   85.7763   12.1605 N.2     1  UNL1        0.0298
     21 C          63.1437   84.4369   11.7610 C.2     1  UNL1        0.3719
     22 N          63.6116   83.2623   12.5680 N.2     1  UNL1       -0.0339
     23 C          64.0519   82.1909   11.6150 C.2     1  UNL1        0.2323
     24 C          63.8562   82.7034   10.2189 C.2     1  UNL1        0.0474
     25 C          63.2949   84.0915   10.3091 C.3     1  UNL1        0.2312
     26 O          63.0530   84.7402    7.8050 O.2     1  UNL1       -0.4510
     27 C          61.8820   84.1979    5.5500 C.3     1  UNL1        0.0513
     28 C          61.8944   84.9137    6.8682 C.3     1  UNL1        0.2083
     29 O          63.2259   88.3486   14.0568 O.3     1  UNL1       -0.4688
     30 C          64.4428   87.7671   14.7132 C.3     1  UNL1        0.2526
@<TRIPOS>BOND
     1    27    28    1
     2    28    26    1
     3    26    17    1
     4    17    18    2
     5    18    19    1
     6    19    15    1
     7    15     1    1
     8     1     2   ar
     9     2     3   ar
    10     3     4   ar
    11     4     7    1
    12     7     8    2
    13     7     9   am
    14     9    10    1
    15    10    11    1
    16    11    12    1
    17    12    13    1
    18    13    14    1
    19     4     5   ar
    20     5     6   ar
    21     6    29    1
    22    29    30    1
    23    19    20    2
    24    20    21    1
    25    21    22    2
    26    22    23    1
    27    23    24    2
    28    24    25    1
    29    25    17    1
    30     6     1   ar
    31    25    21    1
    32    14     9    1
    33    15    16    1
@<TRIPOS>MOLECULE
*****
 30 33 0 0 0
SMALL
GASTEIGER

@<TRIPOS>ATOM
      1 C          62.3584   88.4225   11.5341 C.ar    1  UNL1        0.1434
      2 C          61.8832   87.7231   10.2952 C.ar    1  UNL1        0.0345
      3 C          62.1477   86.2579   10.1128 C.ar    1  UNL1        0.0074
      4 C          62.8874   85.4922   11.1694 C.ar    1  UNL1        0.0568
      5 C          63.3626   86.1916   12.4084 C.ar    1  UNL1        0.0441
      6 C          63.0981   87.6568   12.5907 C.ar    1  UNL1        0.1673
      7 C          63.1520   84.0269   10.9871 C.2     1  UNL1        0.2493
      8 O          63.6339   83.5108    9.6638 O.2     1  UNL1       -0.2699
      9 N          62.9347   83.0780   12.1283 N.am    1  UNL1       -0.2709
     10 C          62.4527   83.5942   13.4517 C.3     1  UNL1        0.1258
     11 C          62.2354   82.6453   14.5927 C.3     1  UNL1        0.1637
     12 O          62.4999   81.1801   14.4105 O.3     1  UNL1       -0.3501
     13 C          62.9818   80.6638   13.0872 C.3     1  UNL1        0.1637
     14 C          63.1992   81.6128   11.9461 C.3     1  UNL1        0.1258
     15 N          62.0939   89.8877   11.7165 N.pl3   1  UNL1       -0.1895
     16 H          61.1694   90.2261   11.7063 H       1  UNL1        0.2524
     17 C          64.8592   92.1083   13.4976 C.2     1  UNL1        0.2958
     18 N          63.7152   91.1586   13.2997 N.2     1  UNL1       -0.0277
     19 C          63.2380   90.8375   11.9144 C.cat   1  UNL1        0.4671
     20 N          63.9049   91.4661   10.7268 N.2     1  UNL1        0.0298
     21 C          65.0489   92.4158   10.9247 C.2     1  UNL1        0.3719
     22 N          65.8958   93.1832    9.9532 N.2     1  UNL1       -0.0339
     23 C          66.8964   93.9786   10.7382 C.2     1  UNL1        0.2323
     24 C          66.6679   93.7028   12.1948 C.2     1  UNL1        0.0474
     25 C          65.5261   92.7369   12.3101 C.3     1  UNL1        0.2312
     26 O          65.3364   92.4294   14.8829 O.2     1  UNL1       -0.4510
     27 C          67.7344   92.9673   15.7256 C.3     1  UNL1        0.0513
     28 C          66.6884   91.9648   15.3370 C.3     1  UNL1        0.2083
     29 O          63.5733   88.3562   13.8297 O.3     1  UNL1       -0.4688
     30 C          64.4210   87.6230   14.8265 C.3     1  UNL1        0.2526
@<TRIPOS>BOND
     1    27    28    1
     2    28    26    1
     3    26    17    1
     4    17    18    2
     5    18    19    1
     6    19    15    1
     7    15     1    1
     8     1     2   ar
     9     2     3   ar
    10     3     4   ar
    11     4     7    1
    12     7     8    2
    13     7     9   am
    14     9    10    1
    15    10    11    1
    16    11    12    1
    17    12    13    1
    18    13    14    1
    19     4     5   ar
    20     5     6   ar
    21     6    29    1
    22    29    30    1
    23    19    20    2
    24    20    21    1
    25    21    22    2
    26    22    23    1
    27    23    24    2
    28    24    25    1
    29    25    17    1
    30     6     1   ar
    31    25    21    1
    32    14     9    1
    33    15    16    1
@<TRIPOS>MOLECULE
*****
 30 33 0 0 0
SMALL
GASTEIGER

@<TRIPOS>ATOM
      1 C          63.7138   87.6279   14.0957 C.ar    1  UNL1        0.1434
      2 C          64.5358   86.5608   14.7556 C.ar    1  UNL1        0.0345
      3 C          64.6497   85.2044   14.1252 C.ar    1  UNL1        0.0074
      4 C          63.9416   84.9153   12.8348 C.ar    1  UNL1        0.0568
      5 C          63.1196   85.9825   12.1750 C.ar    1  UNL1        0.0441
      6 C          63.0057   87.3388   12.8054 C.ar    1  UNL1        0.1673
      7 C          64.0554   83.5590   12.2043 C.2     1  UNL1        0.2493
      8 O          64.9941   83.3428   11.0545 O.2     1  UNL1       -0.2699
      9 N          63.2306   82.4189   12.7237 N.am    1  UNL1       -0.2709
     10 C          62.2919   82.6351   13.8737 C.3     1  UNL1        0.1258
     11 C          61.4671   81.4950   14.3930 C.3     1  UNL1        0.1637
     12 O          61.5809   80.1387   13.7626 O.3     1  UNL1       -0.3501
     13 C          62.5195   79.9225   12.6127 C.3     1  UNL1        0.1637
     14 C          63.3444   81.0626   12.0933 C.3     1  UNL1        0.1258
     15 N          63.5999   88.9843   14.7261 N.pl3   1  UNL1       -0.1895
     16 H          63.0822   89.0997   15.5555 H       1  UNL1        0.2524
     17 C          65.8741   92.2046   14.2703 C.2     1  UNL1        0.2958
     18 N          65.1991   91.0242   14.9035 N.2     1  UNL1       -0.0277
     19 C          64.2749   90.1648   14.0929 C.cat   1  UNL1        0.4671
     20 N          64.0256   90.4857   12.6489 N.2     1  UNL1        0.0298
     21 C          64.7006   91.6662   12.0157 C.2     1  UNL1        0.3719
     22 N          64.6487   92.2250   10.6247 N.2     1  UNL1       -0.0339
     23 C          65.5408   93.4298   10.5757 C.2     1  UNL1        0.2323
     24 C          66.1441   93.6156   11.9364 C.2     1  UNL1        0.0474
     25 C          65.6248   92.5256   12.8264 C.3     1  UNL1        0.2312
     26 O          66.7983   93.0640   15.0810 O.2     1  UNL1       -0.4510
     27 C          69.1886   93.6104   15.9399 C.3     1  UNL1        0.0513
     28 C          68.2631   92.7460   15.1358 C.3     1  UNL1        0.2083
     29 O          62.1837   88.4059   12.1455 O.3     1  UNL1       -0.4688
     30 C          61.4345   88.1019   10.8821 C.3     1  UNL1        0.2526
@<TRIPOS>BOND
     1    27    28    1
     2    28    26    1
     3    26    17    1
     4    17    18    2
     5    18    19    1
     6    19    15    1
     7    15     1    1
     8     1     2   ar
     9     2     3   ar
    10     3     4   ar
    11     4     7    1
    12     7     8    2
    13     7     9   am
    14     9    10    1
    15    10    11    1
    16    11    12    1
    17    12    13    1
    18    13    14    1
    19     4     5   ar
    20     5     6   ar
    21     6    29    1
    22    29    30    1
    23    19    20    2
    24    20    21    1
    25    21    22    2
    26    22    23    1
    27    23    24    2
    28    24    25    1
    29    25    17    1
    30     6     1   ar
    31    25    21    1
    32    14     9    1
    33    15    16    1
@<TRIPOS>MOLECULE
*****
 30 33 0 0 0
SMALL
GASTEIGER

@<TRIPOS>ATOM
      1 C          63.4933   88.9179   13.1464 C.ar    1  UNL1        0.1434
      2 C          64.1996   88.3841   14.3572 C.ar    1  UNL1        0.0345
      3 C          64.2822   86.9039   14.5857 C.ar    1  UNL1        0.0074
      4 C          63.6585   85.9575   13.6033 C.ar    1  UNL1        0.0568
      5 C          62.9521   86.4912   12.3924 C.ar    1  UNL1        0.0441
      6 C          62.8695   87.9714   12.1640 C.ar    1  UNL1        0.1673
      7 C          63.7410   84.4772   13.8317 C.2     1  UNL1        0.2493
      8 O          63.8475   83.9385   15.2275 O.2     1  UNL1       -0.2699
      9 N          63.7171   83.5358   12.6641 N.am    1  UNL1       -0.2709
     10 C          63.6106   84.0746   11.2682 C.3     1  UNL1        0.1258
     11 C          63.5867   83.1332   10.1008 C.3     1  UNL1        0.1637
     12 O          63.6692   81.6530   10.3291 O.3     1  UNL1       -0.3501
     13 C          63.7757   81.1141   11.7249 C.3     1  UNL1        0.1637
     14 C          63.7996   82.0556   12.8924 C.3     1  UNL1        0.1258
     15 N          63.4107   90.3981   12.9179 N.pl3   1  UNL1       -0.1895
     16 H          62.5971   90.7912   12.5270 H       1  UNL1        0.2524
     17 C          66.4896   92.8794   12.5804 C.2     1  UNL1        0.2958
     18 N          65.3326   91.9981   12.2134 N.2     1  UNL1       -0.0277
     19 C          64.5678   91.2794   13.2850 C.cat   1  UNL1        0.4671
     20 N          64.9600   91.4418   14.7237 N.2     1  UNL1        0.0298
     21 C          66.1170   92.3230   15.0907 C.2     1  UNL1        0.3719
     22 N          66.7313   92.6739   16.4134 N.2     1  UNL1       -0.0339
     23 C          67.8757   93.6096   16.1592 C.2     1  UNL1        0.2323
     24 C          67.9688   93.8370   14.6795 C.2     1  UNL1        0.0474
     25 C          66.8818   93.0418   14.0191 C.3     1  UNL1        0.2312
     26 O          67.2544   93.5981   11.5088 O.2     1  UNL1       -0.4510
     27 C          68.5256   92.7147    9.4223 C.3     1  UNL1        0.0513
     28 C          67.2389   93.0808   10.1009 C.3     1  UNL1        0.2083
     29 O          62.1632   88.5051   10.9531 O.3     1  UNL1       -0.4688
     30 C          62.0364   87.6556    9.7234 C.3     1  UNL1        0.2526
@<TRIPOS>BOND
     1    27    28    1
     2    28    26    1
     3    26    17    1
     4    17    18    2
     5    18    19    1
     6    19    15    1
     7    15     1    1
     8     1     2   ar
     9     2     3   ar
    10     3     4   ar
    11     4     7    1
    12     7     8    2
    13     7     9   am
    14     9    10    1
    15    10    11    1
    16    11    12    1
    17    12    13    1
    18    13    14    1
    19     4     5   ar
    20     5     6   ar
    21     6    29    1
    22    29    30    1
    23    19    20    2
    24    20    21    1
    25    21    22    2
    26    22    23    1
    27    23    24    2
    28    24    25    1
    29    25    17    1
    30     6     1   ar
    31    25    21    1
    32    14     9    1
    33    15    16    1
@<TRIPOS>MOLECULE
*****
 30 33 0 0 0
SMALL
GASTEIGER

@<TRIPOS>ATOM
      1 C          63.7278   88.3756   15.4019 C.ar    1  UNL1        0.1434
      2 C          64.1601   87.8738   14.0560 C.ar    1  UNL1        0.0345
      3 C          64.2473   86.3987   13.7980 C.ar    1  UNL1        0.0074
      4 C          63.9022   85.4254   14.8859 C.ar    1  UNL1        0.0568
      5 C          63.4699   85.9271   16.2318 C.ar    1  UNL1        0.0441
      6 C          63.3827   87.4022   16.4898 C.ar    1  UNL1        0.1673
      7 C          63.9894   83.9503   14.6280 C.2     1  UNL1        0.2493
      8 O          64.2905   83.0082   15.7558 O.2     1  UNL1       -0.2699
      9 N          63.7754   83.4173   13.2423 N.am    1  UNL1       -0.2709
     10 C          63.4743   84.3595   12.1145 C.3     1  UNL1        0.1258
     11 C          63.2604   83.8265   10.7289 C.3     1  UNL1        0.1637
     12 O          63.3475   82.3514   10.4709 O.3     1  UNL1       -0.3501
     13 C          63.6486   81.4093   11.5986 C.3     1  UNL1        0.1637
     14 C          63.8626   81.9422   12.9843 C.3     1  UNL1        0.1258
     15 N          63.6406   89.8506   15.6599 N.pl3   1  UNL1       -0.1895
     16 H          63.1312   90.1859   16.4327 H       1  UNL1        0.2524
     17 C          66.0376   92.7362   14.3645 C.2     1  UNL1        0.2958
     18 N          65.3486   91.7720   15.2840 N.2     1  UNL1       -0.0277
     19 C          64.3297   90.8149   14.7403 C.cat   1  UNL1        0.4671
     20 N          63.9997   90.8220   13.2770 N.2     1  UNL1        0.0298
     21 C          64.6887   91.7862   12.3575 C.2     1  UNL1        0.3719
     22 N          64.5710   92.0237   10.8811 N.2     1  UNL1       -0.0339
     23 C          65.5172   93.1277   10.5124 C.2     1  UNL1        0.2323
     24 C          66.2197   93.5724   11.7609 C.2     1  UNL1        0.0474
     25 C          65.7077   92.7433   12.9012 C.3     1  UNL1        0.2312
     26 O          67.0566   93.6933   14.9082 O.2     1  UNL1       -0.4510
     27 C          69.3231   94.1028   16.1103 C.3     1  UNL1        0.0513
     28 C          68.3836   93.1839   15.3871 C.3     1  UNL1        0.2083
     29 O          62.9504   87.9040   17.8356 O.3     1  UNL1       -0.4688
     30 C          62.6283   86.9310   18.9308 C.3     1  UNL1        0.2526
@<TRIPOS>BOND
     1    27    28    1
     2    28    26    1
     3    26    17    1
     4    17    18    2
     5    18    19    1
     6    19    15    1
     7    15     1    1
     8     1     2   ar
     9     2     3   ar
    10     3     4   ar
    11     4     7    1
    12     7     8    2
    13     7     9   am
    14     9    10    1
    15    10    11    1
    16    11    12    1
    17    12    13    1
    18    13    14    1
    19     4     5   ar
    20     5     6   ar
    21     6    29    1
    22    29    30    1
    23    19    20    2
    24    20    21    1
    25    21    22    2
    26    22    23    1
    27    23    24    2
    28    24    25    1
    29    25    17    1
    30     6     1   ar
    31    25    21    1
    32    14     9    1
    33    15    16    1
