@<TRIPOS>MOLECULE
*****
 27 30 0 0 0
SMALL
GASTEIGER

@<TRIPOS>ATOM
      1 C          62.5224   84.8628    6.6049 C.3     1  UNL1        0.0523
      2 C          62.5524   85.1232    8.0819 C.ar    1  UNL1        0.0653
      3 C          61.9780   86.3955    8.6310 C.ar    1  UNL1        0.0490
      4 C          62.0080   86.6558   10.1079 C.ar    1  UNL1        0.1342
      5 N          62.6125   85.6439   11.0357 N.ar    1  UNL1       -0.1816
      6 N          62.7833   85.6245   12.5258 N.ar    1  UNL1       -0.1409
      7 C          63.4634   84.3402   12.8976 C.ar    1  UNL1        0.2227
      8 N          63.7128   83.5660   11.6373 N.ar    1  UNL1       -0.1880
      9 C          63.1869   84.3718   10.4866 C.ar    1  UNL1        0.2552
     10 N          63.1569   84.1114    9.0097 N.ar    1  UNL1       -0.2142
     11 C          63.8297   83.9064   14.2861 C.3     1  UNL1        0.3163
     12 C          64.1960   83.4726   15.6744 C.3     1  UNL1        0.0805
     13 F          62.4506   83.3478   14.4754 F       1  UNL1       -0.1962
     14 F          65.2088   84.4650   14.0967 F       1  UNL1       -0.1962
     15 N          61.4336   87.9280   10.6570 N.pl3   1  UNL1       -0.3192
     16 H          60.4585   88.0291   10.7474 H       1  UNL1        0.1482
     17 C          62.3449   89.0462   11.0685 C.3     1  UNL1        0.0750
     18 C          62.5767   90.2039   10.1433 C.3     1  UNL1        0.0245
     19 C          63.4880   91.3220   10.5547 C.3     1  UNL1        0.0278
     20 C          64.1675   91.2824   11.8914 C.ar    1  UNL1       -0.0255
     21 C          65.0788   92.4006   12.3029 C.ar    1  UNL1        0.0021
     22 C          65.7583   92.3611   13.6395 C.ar    1  UNL1        0.0342
     23 BR         66.6696   93.4792   14.0510 Br      1  UNL1       -0.0490
     24 C          65.5265   91.2034   14.5648 C.ar    1  UNL1        0.0064
     25 C          64.6152   90.0852   14.1533 C.ar    1  UNL1       -0.0040
     26 C          63.9357   90.1248   12.8166 C.ar    1  UNL1       -0.0245
     27 C          63.0244   89.0067   12.4052 C.3     1  UNL1        0.0455
@<TRIPOS>BOND
     1     1     2    1
     2     2     3   ar
     3     3     4   ar
     4     4    15    1
     5    15    17    1
     6    17    18    1
     7    18    19    1
     8    19    20    1
     9    20    21   ar
    10    21    22   ar
    11    22    23    1
    12    22    24   ar
    13    24    25   ar
    14    25    26   ar
    15    26    27    1
    16     4     5   ar
    17     5     6   ar
    18     6     7   ar
    19     7    11    1
    20    11    12    1
    21    11    13    1
    22    11    14    1
    23     7     8   ar
    24     8     9   ar
    25     9    10   ar
    26    10     2   ar
    27    27    17    1
    28     9     5   ar
    29    26    20   ar
    30    15    16    1
@<TRIPOS>MOLECULE
*****
 27 30 0 0 0
SMALL
GASTEIGER

@<TRIPOS>ATOM
      1 C          59.2471   88.8727    6.9736 C.3     1  UNL1        0.0523
      2 C          59.9772   88.5162    8.2345 C.ar    1  UNL1        0.0653
      3 C          60.2062   89.5584    9.2888 C.ar    1  UNL1        0.0490
      4 C          60.9363   89.2020   10.5497 C.ar    1  UNL1        0.1342
      5 N          61.4374   87.8033   10.7563 N.ar    1  UNL1       -0.1816
      6 N          62.1842   87.1617   11.8879 N.ar    1  UNL1       -0.1409
      7 C          62.4168   85.7230   11.5331 C.ar    1  UNL1        0.2227
      8 N          61.8137   85.4754   10.1822 N.ar    1  UNL1       -0.1880
      9 C          61.2084   86.7612    9.7021 C.ar    1  UNL1        0.2552
     10 N          60.4783   87.1176    8.4412 N.ar    1  UNL1       -0.2142
     11 C          63.1277   84.7097   12.3804 C.3     1  UNL1        0.3163
     12 C          63.8386   83.6964   13.2278 C.3     1  UNL1        0.0805
     13 F          62.4320   83.6045   11.6426 F       1  UNL1       -0.1962
     14 F          63.8234   85.8148   13.1183 F       1  UNL1       -0.1962
     15 N          61.1653   90.2441   11.6039 N.pl3   1  UNL1       -0.3192
     16 H          60.4049   90.5983   12.1193 H       1  UNL1        0.1482
     17 C          62.5528   90.7467   11.8729 C.3     1  UNL1        0.0750
     18 C          63.3456   91.3861   10.7718 C.3     1  UNL1        0.0245
     19 C          64.7330   91.8886   11.0408 C.3     1  UNL1        0.0278
     20 C          65.3277   91.7516   12.4110 C.ar    1  UNL1       -0.0255
     21 C          66.7153   92.2541   12.6801 C.ar    1  UNL1        0.0021
     22 C          67.3100   92.1171   14.0503 C.ar    1  UNL1        0.0342
     23 BR         68.6975   92.6196   14.3193 Br      1  UNL1       -0.0490
     24 C          66.5172   91.4776   15.1515 C.ar    1  UNL1        0.0064
     25 C          65.1298   90.9752   14.8824 C.ar    1  UNL1       -0.0040
     26 C          64.5350   91.1121   13.5122 C.ar    1  UNL1       -0.0245
     27 C          63.1476   90.6097   13.2432 C.3     1  UNL1        0.0455
@<TRIPOS>BOND
     1     1     2    1
     2     2     3   ar
     3     3     4   ar
     4     4    15    1
     5    15    17    1
     6    17    18    1
     7    18    19    1
     8    19    20    1
     9    20    21   ar
    10    21    22   ar
    11    22    23    1
    12    22    24   ar
    13    24    25   ar
    14    25    26   ar
    15    26    27    1
    16     4     5   ar
    17     5     6   ar
    18     6     7   ar
    19     7    11    1
    20    11    12    1
    21    11    13    1
    22    11    14    1
    23     7     8   ar
    24     8     9   ar
    25     9    10   ar
    26    10     2   ar
    27    27    17    1
    28     9     5   ar
    29    26    20   ar
    30    15    16    1
@<TRIPOS>MOLECULE
*****
 27 30 0 0 0
SMALL
GASTEIGER

@<TRIPOS>ATOM
      1 C          63.5835   90.4739   16.4411 C.3     1  UNL1        0.0523
      2 C          63.8808   90.8231   15.0130 C.ar    1  UNL1        0.0653
      3 C          63.1216   90.1563   13.9042 C.ar    1  UNL1        0.0490
      4 C          63.4189   90.5055   12.4760 C.ar    1  UNL1        0.1342
      5 N          64.4753   91.5214   12.1566 N.ar    1  UNL1       -0.1816
      6 N          64.9839   92.0649   10.8543 N.ar    1  UNL1       -0.1409
      7 C          66.0574   93.0676   11.1582 C.ar    1  UNL1        0.2227
      8 N          66.2122   93.1437   12.6483 N.ar    1  UNL1       -0.1880
      9 C          65.2344   92.1881   13.2653 C.ar    1  UNL1        0.2552
     10 N          64.9371   91.8390   14.6935 N.ar    1  UNL1       -0.2142
     11 C          66.8389   93.8557   10.1492 C.3     1  UNL1        0.3163
     12 C          67.6204   94.6438    9.1402 C.3     1  UNL1        0.0805
     13 F          67.3927   92.5818    9.5830 F       1  UNL1       -0.1962
     14 F          66.2852   95.1296   10.7153 F       1  UNL1       -0.1962
     15 N          62.6598   89.8388   11.3673 N.pl3   1  UNL1       -0.3192
     16 H          62.2009   90.3838   10.6879 H       1  UNL1        0.1482
     17 C          62.6000   88.3418   11.2938 C.3     1  UNL1        0.0750
     18 C          61.9922   87.6734   10.0964 C.3     1  UNL1        0.0245
     19 C          61.9324   86.1764   10.0229 C.3     1  UNL1        0.0278
     20 C          62.4803   85.3478   11.1469 C.ar    1  UNL1       -0.0255
     21 C          62.4205   83.8508   11.0733 C.ar    1  UNL1        0.0021
     22 C          62.9684   83.0222   12.1973 C.ar    1  UNL1        0.0342
     23 BR         62.9086   81.5252   12.1238 Br      1  UNL1       -0.0490
     24 C          63.5761   83.6907   13.3948 C.ar    1  UNL1        0.0064
     25 C          63.6359   85.1876   13.4682 C.ar    1  UNL1       -0.0040
     26 C          63.0880   86.0162   12.3443 C.ar    1  UNL1       -0.0245
     27 C          63.1479   87.5132   12.4178 C.3     1  UNL1        0.0455
@<TRIPOS>BOND
     1     1     2    1
     2     2     3   ar
     3     3     4   ar
     4     4    15    1
     5    15    17    1
     6    17    18    1
     7    18    19    1
     8    19    20    1
     9    20    21   ar
    10    21    22   ar
    11    22    23    1
    12    22    24   ar
    13    24    25   ar
    14    25    26   ar
    15    26    27    1
    16     4     5   ar
    17     5     6   ar
    18     6     7   ar
    19     7    11    1
    20    11    12    1
    21    11    13    1
    22    11    14    1
    23     7     8   ar
    24     8     9   ar
    25     9    10   ar
    26    10     2   ar
    27    27    17    1
    28     9     5   ar
    29    26    20   ar
    30    15    16    1
@<TRIPOS>MOLECULE
*****
 27 30 0 0 0
SMALL
GASTEIGER

@<TRIPOS>ATOM
      1 C          61.9609   89.4364   10.8350 C.3     1  UNL1        0.0523
      2 C          62.9574   89.7362   11.9153 C.ar    1  UNL1        0.0653
      3 C          63.2111   88.7328   13.0011 C.ar    1  UNL1        0.0490
      4 C          64.2076   89.0326   14.0814 C.ar    1  UNL1        0.1342
      5 N          64.9505   90.3357   14.0759 N.ar    1  UNL1       -0.1816
      6 N          65.9840   90.9058   15.0016 N.ar    1  UNL1       -0.1409
      7 C          66.3690   92.2615   14.4879 C.ar    1  UNL1        0.2227
      8 N          65.5735   92.5292   13.2447 N.ar    1  UNL1       -0.1880
      9 C          64.6968   91.3391   12.9901 C.ar    1  UNL1        0.2552
     10 N          63.7003   91.0393   11.9098 N.ar    1  UNL1       -0.2142
     11 C          67.3733   93.1869   15.1085 C.3     1  UNL1        0.3163
     12 C          68.3776   94.1123   15.7290 C.3     1  UNL1        0.0805
     13 F          66.7448   94.3472   14.3954 F       1  UNL1       -0.1962
     14 F          68.0018   92.0266   15.8216 F       1  UNL1       -0.1962
     15 N          64.4613   88.0293   15.1672 N.pl3   1  UNL1       -0.3192
     16 H          64.9659   88.2909   15.9711 H       1  UNL1        0.1482
     17 C          63.9462   86.6273   15.0282 C.3     1  UNL1        0.0750
     18 C          63.1508   86.0070   16.1384 C.3     1  UNL1        0.0245
     19 C          62.6358   84.6051   15.9993 C.3     1  UNL1        0.0278
     20 C          62.9162   83.8235   14.7501 C.ar    1  UNL1       -0.0255
     21 C          62.4011   82.4215   14.6112 C.ar    1  UNL1        0.0021
     22 C          62.6815   81.6399   13.3620 C.ar    1  UNL1        0.0342
     23 BR         62.1665   80.2380   13.2229 Br      1  UNL1       -0.0490
     24 C          63.4770   82.2603   12.2518 C.ar    1  UNL1        0.0064
     25 C          63.9920   83.6622   12.3908 C.ar    1  UNL1       -0.0040
     26 C          63.7116   84.4438   13.6400 C.ar    1  UNL1       -0.0245
     27 C          64.2266   85.8457   13.7790 C.3     1  UNL1        0.0455
@<TRIPOS>BOND
     1     1     2    1
     2     2     3   ar
     3     3     4   ar
     4     4    15    1
     5    15    17    1
     6    17    18    1
     7    18    19    1
     8    19    20    1
     9    20    21   ar
    10    21    22   ar
    11    22    23    1
    12    22    24   ar
    13    24    25   ar
    14    25    26   ar
    15    26    27    1
    16     4     5   ar
    17     5     6   ar
    18     6     7   ar
    19     7    11    1
    20    11    12    1
    21    11    13    1
    22    11    14    1
    23     7     8   ar
    24     8     9   ar
    25     9    10   ar
    26    10     2   ar
    27    27    17    1
    28     9     5   ar
    29    26    20   ar
    30    15    16    1
@<TRIPOS>MOLECULE
*****
 27 30 0 0 0
SMALL
GASTEIGER

@<TRIPOS>ATOM
      1 C          62.6027   86.9820   18.6685 C.3     1  UNL1        0.0523
      2 C          62.8530   86.3665   17.3237 C.ar    1  UNL1        0.0653
      3 C          63.4366   87.1940   16.2170 C.ar    1  UNL1        0.0490
      4 C          63.6869   86.5784   14.8722 C.ar    1  UNL1        0.1342
      5 N          63.3535   85.1354   14.6341 N.ar    1  UNL1       -0.1816
      6 N          63.4882   84.2608   13.4229 N.ar    1  UNL1       -0.1409
      7 C          62.9878   82.8928   13.7811 C.ar    1  UNL1        0.2227
      8 N          62.5438   82.9220   15.2136 N.ar    1  UNL1       -0.1880
      9 C          62.7698   84.3080   15.7407 C.ar    1  UNL1        0.2552
     10 N          62.5196   84.9236   17.0855 N.ar    1  UNL1       -0.2142
     11 C          62.9398   81.7043   12.8671 C.3     1  UNL1        0.3163
     12 C          62.8918   80.5159   11.9532 C.3     1  UNL1        0.0805
     13 F          63.6351   80.8766   13.9070 F       1  UNL1       -0.1962
     14 F          62.2445   82.5321   11.8273 F       1  UNL1       -0.1962
     15 N          64.2706   87.4058   13.7655 N.pl3   1  UNL1       -0.3192
     16 H          65.2269   87.6392   13.7773 H       1  UNL1        0.1482
     17 C          63.3971   87.8775   12.6409 C.3     1  UNL1        0.0750
     18 C          63.2307   89.3462   12.3858 C.3     1  UNL1        0.0245
     19 C          62.3573   89.8178   11.2613 C.3     1  UNL1        0.0278
     20 C          61.6503   88.8207   10.3918 C.ar    1  UNL1       -0.0255
     21 C          60.7768   89.2925    9.2672 C.ar    1  UNL1        0.0021
     22 C          60.0698   88.2954    8.3978 C.ar    1  UNL1        0.0342
     23 BR         59.1964   88.7670    7.2732 Br      1  UNL1       -0.0490
     24 C          60.2363   86.8266    8.6529 C.ar    1  UNL1        0.0064
     25 C          61.1097   86.3549    9.7775 C.ar    1  UNL1       -0.0040
     26 C          61.8167   87.3520   10.6469 C.ar    1  UNL1       -0.0245
     27 C          62.6901   86.8804   11.7715 C.3     1  UNL1        0.0455
@<TRIPOS>BOND
     1     1     2    1
     2     2     3   ar
     3     3     4   ar
     4     4    15    1
     5    15    17    1
     6    17    18    1
     7    18    19    1
     8    19    20    1
     9    20    21   ar
    10    21    22   ar
    11    22    23    1
    12    22    24   ar
    13    24    25   ar
    14    25    26   ar
    15    26    27    1
    16     4     5   ar
    17     5     6   ar
    18     6     7   ar
    19     7    11    1
    20    11    12    1
    21    11    13    1
    22    11    14    1
    23     7     8   ar
    24     8     9   ar
    25     9    10   ar
    26    10     2   ar
    27    27    17    1
    28     9     5   ar
    29    26    20   ar
    30    15    16    1
@<TRIPOS>MOLECULE
*****
 27 30 0 0 0
SMALL
GASTEIGER

@<TRIPOS>ATOM
      1 C          65.7282   93.4957   10.4389 C.3     1  UNL1        0.0523
      2 C          64.9763   92.4513   11.2095 C.ar    1  UNL1        0.0653
      3 C          63.9227   91.6296   10.5278 C.ar    1  UNL1        0.0490
      4 C          63.1708   90.5852   11.2984 C.ar    1  UNL1        0.1342
      5 N          63.4726   90.3625   12.7508 N.ar    1  UNL1       -0.1816
      6 N          62.8998   89.4128   13.7607 N.ar    1  UNL1       -0.1409
      7 C          63.5994   89.6476   15.0667 C.ar    1  UNL1        0.2227
      8 N          64.6046   90.7423   14.8638 N.ar    1  UNL1       -0.1880
      9 C          64.5262   91.1842   13.4325 C.ar    1  UNL1        0.2552
     10 N          65.2780   92.2286   12.6619 N.ar    1  UNL1       -0.2142
     11 C          63.3395   88.9160   16.3502 C.3     1  UNL1        0.3163
     12 C          63.0796   88.1844   17.6336 C.3     1  UNL1        0.0805
     13 F          63.0802   90.2214   17.0418 F       1  UNL1       -0.1962
     14 F          63.5988   87.6105   15.6585 F       1  UNL1       -0.1962
     15 N          62.1172   89.7635   10.6167 N.pl3   1  UNL1       -0.3192
     16 H          61.3412   90.2045   10.2014 H       1  UNL1        0.1482
     17 C          62.2460   88.2698   10.5679 C.3     1  UNL1        0.0750
     18 C          61.9888   87.5364    9.2850 C.3     1  UNL1        0.0245
     19 C          62.1176   86.0428    9.2362 C.3     1  UNL1        0.0278
     20 C          62.5035   85.2825   10.4703 C.ar    1  UNL1       -0.0255
     21 C          62.6322   83.7888   10.4215 C.ar    1  UNL1        0.0021
     22 C          63.0181   83.0285   11.6556 C.ar    1  UNL1        0.0342
     23 BR         63.1468   81.5349   11.6068 Br      1  UNL1       -0.0490
     24 C          63.2752   83.7620   12.9386 C.ar    1  UNL1        0.0064
     25 C          63.1465   85.2556   12.9874 C.ar    1  UNL1       -0.0040
     26 C          62.7606   86.0159   11.7532 C.ar    1  UNL1       -0.0245
     27 C          62.6319   87.5095   11.8020 C.3     1  UNL1        0.0455
@<TRIPOS>BOND
     1     1     2    1
     2     2     3   ar
     3     3     4   ar
     4     4    15    1
     5    15    17    1
     6    17    18    1
     7    18    19    1
     8    19    20    1
     9    20    21   ar
    10    21    22   ar
    11    22    23    1
    12    22    24   ar
    13    24    25   ar
    14    25    26   ar
    15    26    27    1
    16     4     5   ar
    17     5     6   ar
    18     6     7   ar
    19     7    11    1
    20    11    12    1
    21    11    13    1
    22    11    14    1
    23     7     8   ar
    24     8     9   ar
    25     9    10   ar
    26    10     2   ar
    27    27    17    1
    28     9     5   ar
    29    26    20   ar
    30    15    16    1
@<TRIPOS>MOLECULE
*****
 27 30 0 0 0
SMALL
GASTEIGER

@<TRIPOS>ATOM
      1 C          66.1359   93.0071   10.5939 C.3     1  UNL1        0.0523
      2 C          65.2050   92.1663   11.4164 C.ar    1  UNL1        0.0653
      3 C          63.8179   91.8805   10.9220 C.ar    1  UNL1        0.0490
      4 C          62.8870   91.0397   11.7444 C.ar    1  UNL1        0.1342
      5 N          63.3431   90.4847   13.0613 N.ar    1  UNL1       -0.1816
      6 N          62.6538   89.6300   14.0831 N.ar    1  UNL1       -0.1409
      7 C          63.6148   89.3875   15.2090 C.ar    1  UNL1        0.2227
      8 N          64.8981   90.0924   14.8830 N.ar    1  UNL1       -0.1880
      9 C          64.7302   90.7705   13.5556 C.ar    1  UNL1        0.2552
     10 N          65.6611   91.6114   12.7331 N.ar    1  UNL1       -0.2142
     11 C          63.3406   88.5816   16.4441 C.3     1  UNL1        0.3163
     12 C          63.0665   87.7758   17.6791 C.3     1  UNL1        0.0805
     13 F          62.9794   89.8363   17.1826 F       1  UNL1       -0.1962
     14 F          63.7019   87.3270   15.7056 F       1  UNL1       -0.1962
     15 N          61.4999   90.7539   11.2501 N.pl3   1  UNL1       -0.3192
     16 H          60.7436   91.3018   11.5617 H       1  UNL1        0.1482
     17 C          61.2651   89.6332   10.2810 C.3     1  UNL1        0.0750
     18 C          60.0161   89.6089    9.4509 C.3     1  UNL1        0.0245
     19 C          59.7813   88.4883    8.4818 C.3     1  UNL1        0.0278
     20 C          60.7957   87.3920    8.3429 C.ar    1  UNL1       -0.0255
     21 C          60.5609   86.2713    7.3738 C.ar    1  UNL1        0.0021
     22 C          61.5752   85.1751    7.2349 C.ar    1  UNL1        0.0342
     23 BR         61.3405   84.0544    6.2659 Br      1  UNL1       -0.0490
     24 C          62.8243   85.1994    8.0651 C.ar    1  UNL1        0.0064
     25 C          63.0591   86.3200    9.0342 C.ar    1  UNL1       -0.0040
     26 C          62.0447   87.4163    9.1731 C.ar    1  UNL1       -0.0245
     27 C          62.2795   88.5369   10.1421 C.3     1  UNL1        0.0455
@<TRIPOS>BOND
     1     1     2    1
     2     2     3   ar
     3     3     4   ar
     4     4    15    1
     5    15    17    1
     6    17    18    1
     7    18    19    1
     8    19    20    1
     9    20    21   ar
    10    21    22   ar
    11    22    23    1
    12    22    24   ar
    13    24    25   ar
    14    25    26   ar
    15    26    27    1
    16     4     5   ar
    17     5     6   ar
    18     6     7   ar
    19     7    11    1
    20    11    12    1
    21    11    13    1
    22    11    14    1
    23     7     8   ar
    24     8     9   ar
    25     9    10   ar
    26    10     2   ar
    27    27    17    1
    28     9     5   ar
    29    26    20   ar
    30    15    16    1
@<TRIPOS>MOLECULE
*****
 27 30 0 0 0
SMALL
GASTEIGER

@<TRIPOS>ATOM
      1 C          64.5218   83.9137   14.1631 C.3     1  UNL1        0.0523
      2 C          63.8857   84.4751   12.9261 C.ar    1  UNL1        0.0653
      3 C          63.1614   85.7874   12.9847 C.ar    1  UNL1        0.0490
      4 C          62.5253   86.3489   11.7477 C.ar    1  UNL1        0.1342
      5 N          62.6135   85.5980   10.4520 N.ar    1  UNL1       -0.1816
      6 N          62.0889   85.8996    9.0796 N.ar    1  UNL1       -0.1409
      7 C          62.4889   84.7737    8.1727 C.ar    1  UNL1        0.2227
      8 N          63.2607   83.7763    8.9848 N.ar    1  UNL1       -0.1880
      9 C          63.3378   84.2858   10.3935 C.ar    1  UNL1        0.2552
     10 N          63.9739   83.7243   11.6305 N.ar    1  UNL1       -0.2142
     11 C          62.1725   84.6644    6.7105 C.3     1  UNL1        0.3163
     12 C          61.8563   84.5551    5.2483 C.3     1  UNL1        0.0805
     13 F          60.7231   84.9135    7.0054 F       1  UNL1       -0.1962
     14 F          63.6220   84.4153    6.4156 F       1  UNL1       -0.1962
     15 N          61.8011   87.6611   11.8062 N.pl3   1  UNL1       -0.3192
     16 H          60.8376   87.6830   12.0077 H       1  UNL1        0.1482
     17 C          62.5447   88.9399   11.5577 C.3     1  UNL1        0.0750
     18 C          62.4108   89.6411   10.2385 C.3     1  UNL1        0.0245
     19 C          63.1544   90.9199    9.9900 C.3     1  UNL1        0.0278
     20 C          64.0318   91.4975   11.0608 C.ar    1  UNL1       -0.0255
     21 C          64.7754   92.7763   10.8123 C.ar    1  UNL1        0.0021
     22 C          65.6528   93.3539   11.8831 C.ar    1  UNL1        0.0342
     23 BR         66.3964   94.6327   11.6346 Br      1  UNL1       -0.0490
     24 C          65.7866   92.6527   13.2024 C.ar    1  UNL1        0.0064
     25 C          65.0430   91.3739   13.4508 C.ar    1  UNL1       -0.0040
     26 C          64.1656   90.7963   12.3800 C.ar    1  UNL1       -0.0245
     27 C          63.4220   89.5175   12.6285 C.3     1  UNL1        0.0455
@<TRIPOS>BOND
     1     1     2    1
     2     2     3   ar
     3     3     4   ar
     4     4    15    1
     5    15    17    1
     6    17    18    1
     7    18    19    1
     8    19    20    1
     9    20    21   ar
    10    21    22   ar
    11    22    23    1
    12    22    24   ar
    13    24    25   ar
    14    25    26   ar
    15    26    27    1
    16     4     5   ar
    17     5     6   ar
    18     6     7   ar
    19     7    11    1
    20    11    12    1
    21    11    13    1
    22    11    14    1
    23     7     8   ar
    24     8     9   ar
    25     9    10   ar
    26    10     2   ar
    27    27    17    1
    28     9     5   ar
    29    26    20   ar
    30    15    16    1
@<TRIPOS>MOLECULE
*****
 27 30 0 0 0
SMALL
GASTEIGER

@<TRIPOS>ATOM
      1 C          62.5482   84.4871   11.3217 C.3     1  UNL1        0.0523
      2 C          61.9839   85.7734   10.7953 C.ar    1  UNL1        0.0653
      3 C          62.0048   87.0066   11.6491 C.ar    1  UNL1        0.0490
      4 C          61.4406   88.2929   11.1227 C.ar    1  UNL1        0.1342
      5 N          60.8554   88.3460    9.7425 N.ar    1  UNL1       -0.1816
      6 N          60.2308   89.4625    8.9595 N.ar    1  UNL1       -0.1409
      7 C          59.8238   88.9194    7.6218 C.ar    1  UNL1        0.2227
      8 N          60.1970   87.4672    7.5782 N.ar    1  UNL1       -0.1880
      9 C          60.8346   87.1128    8.8888 C.ar    1  UNL1        0.2552
     10 N          61.3988   85.8265    9.4152 N.ar    1  UNL1       -0.2142
     11 C          59.1602   89.6927    6.5211 C.3     1  UNL1        0.3163
     12 C          58.4967   90.4661    5.4204 C.3     1  UNL1        0.0805
     13 F          57.8284   89.1421    6.9371 F       1  UNL1       -0.1962
     14 F          60.4920   90.2433    6.1050 F       1  UNL1       -0.1962
     15 N          61.4615   89.5260   11.9764 N.pl3   1  UNL1       -0.3192
     16 H          60.6444   90.0647   12.0831 H       1  UNL1        0.1482
     17 C          62.7273   89.9384   12.6676 C.3     1  UNL1        0.0750
     18 C          63.2346   89.1485   13.8375 C.3     1  UNL1        0.0245
     19 C          64.5004   89.5609   14.5286 C.3     1  UNL1        0.0278
     20 C          65.2589   90.7632   14.0498 C.ar    1  UNL1       -0.0255
     21 C          66.5247   91.1756   14.7410 C.ar    1  UNL1        0.0021
     22 C          67.2831   92.3779   14.2623 C.ar    1  UNL1        0.0342
     23 BR         68.5489   92.7903   14.9534 Br      1  UNL1       -0.0490
     24 C          66.7757   93.1678   13.0924 C.ar    1  UNL1        0.0064
     25 C          65.5100   92.7554   12.4013 C.ar    1  UNL1       -0.0040
     26 C          64.7515   91.5531   12.8800 C.ar    1  UNL1       -0.0245
     27 C          63.4858   91.1407   12.1889 C.3     1  UNL1        0.0455
@<TRIPOS>BOND
     1     1     2    1
     2     2     3   ar
     3     3     4   ar
     4     4    15    1
     5    15    17    1
     6    17    18    1
     7    18    19    1
     8    19    20    1
     9    20    21   ar
    10    21    22   ar
    11    22    23    1
    12    22    24   ar
    13    24    25   ar
    14    25    26   ar
    15    26    27    1
    16     4     5   ar
    17     5     6   ar
    18     6     7   ar
    19     7    11    1
    20    11    12    1
    21    11    13    1
    22    11    14    1
    23     7     8   ar
    24     8     9   ar
    25     9    10   ar
    26    10     2   ar
    27    27    17    1
    28     9     5   ar
    29    26    20   ar
    30    15    16    1
