@<TRIPOS>MOLECULE
*****
 23 25 0 0 0
SMALL
GASTEIGER

@<TRIPOS>ATOM
      1 C          65.8995   92.6447   13.0134 C.ar    1  UNL1        0.0510
      2 C          66.4470   92.6846   14.4093 C.ar    1  UNL1        0.0823
      3 C          67.5625   93.5625   14.8940 C.3     1  UNL1        0.0540
      4 N          65.6832   91.6926   15.2353 N.ar    1  UNL1       -0.1681
      5 N          64.6636   91.0395   14.3499 N.ar    1  UNL1       -0.2085
      6 C          63.6307   89.9851   14.6168 C.ar    1  UNL1        0.1569
      7 C          62.7315   89.5191   13.5103 C.ar    1  UNL1        0.0379
      8 C          62.8652   90.1075   12.1371 C.ar    1  UNL1        0.0625
      9 C          61.9659   89.6414   11.0306 C.3     1  UNL1        0.0522
     10 N          63.8980   91.1620   11.8702 N.ar    1  UNL1       -0.2308
     11 C          64.7972   91.6280   12.9767 C.ar    1  UNL1        0.1644
     12 C          67.3150   95.1374    9.5445 C.ar    1  UNL1        0.1387
     13 C          66.6528   95.7942   10.7192 C.ar    1  UNL1        0.0369
     14 C          66.1809   94.9633   11.8754 C.ar    1  UNL1        0.0032
     15 C          66.3713   93.4756   11.8571 C.ar    1  UNL1        0.0043
     16 C          67.0336   92.8187   10.6823 C.ar    1  UNL1        0.0032
     17 C          67.5055   93.6496    9.5260 C.ar    1  UNL1        0.0369
     18 C          66.8219   96.8556    7.6591 C.3     1  UNL1        0.2525
     19 O          67.7869   95.9683    8.3882 O.3     1  UNL1       -0.4714
     20 C          63.4970   89.3966   15.9900 C.3     1  UNL1        0.4350
     21 F          63.3633   88.8082   17.3633 F       1  UNL1       -0.1644
     22 F          63.0730   90.7336   16.5216 F       1  UNL1       -0.1644
     23 F          63.9210   88.0596   15.4584 F       1  UNL1       -0.1644
@<TRIPOS>BOND
     1    18    19    1
     2    19    12    1
     3    12    13   ar
     4    13    14   ar
     5    14    15   ar
     6    15     1    1
     7     1     2   ar
     8     2     3    1
     9     2     4   ar
    10     4     5   ar
    11     5     6   ar
    12     6    20    1
    13    20    21    1
    14    20    22    1
    15    20    23    1
    16     6     7   ar
    17     7     8   ar
    18     8     9    1
    19     8    10   ar
    20    10    11   ar
    21    15    16   ar
    22    16    17   ar
    23    17    12   ar
    24    11     1   ar
    25    11     5   ar
@<TRIPOS>MOLECULE
*****
 23 25 0 0 0
SMALL
GASTEIGER

@<TRIPOS>ATOM
      1 C          62.5023   88.4491   10.9791 C.ar    1  UNL1        0.0510
      2 C          62.5106   89.9488   10.9489 C.ar    1  UNL1        0.0823
      3 C          61.9937   90.8112    9.8358 C.3     1  UNL1        0.0540
      4 N          63.1267   90.4346   12.2274 N.ar    1  UNL1       -0.1681
      5 N          63.4990   89.2352   13.0477 N.ar    1  UNL1       -0.2085
      6 C          64.1396   89.1019   14.3974 C.ar    1  UNL1        0.1569
      7 C          64.3943   87.7415   14.9756 C.ar    1  UNL1        0.0379
      8 C          64.0084   86.5144   14.2040 C.ar    1  UNL1        0.0625
      9 C          64.2631   85.1539   14.7823 C.3     1  UNL1        0.0522
     10 N          63.3678   86.6477   12.8543 N.ar    1  UNL1       -0.2308
     11 C          63.1131   88.0081   12.2761 C.ar    1  UNL1        0.1644
     12 C          60.9219   85.7474    7.7458 C.ar    1  UNL1        0.1387
     13 C          62.3446   85.6174    8.2030 C.ar    1  UNL1        0.0369
     14 C          62.8714   86.5180    9.2807 C.ar    1  UNL1        0.0032
     15 C          61.9755   87.5485    9.9013 C.ar    1  UNL1        0.0043
     16 C          60.5527   87.6786    9.4442 C.ar    1  UNL1        0.0032
     17 C          60.0260   86.7780    8.3664 C.ar    1  UNL1        0.0369
     18 C          61.3479   84.1199    5.7660 C.3     1  UNL1        0.2525
     19 O          60.3952   84.8468    6.6681 O.3     1  UNL1       -0.4714
     20 C          64.5255   90.3290   15.1689 C.3     1  UNL1        0.4350
     21 F          64.9114   91.5561   15.9405 F       1  UNL1       -0.1644
     22 F          65.6331   90.5944   14.1928 F       1  UNL1       -0.1644
     23 F          63.4179   90.0636   16.1450 F       1  UNL1       -0.1644
@<TRIPOS>BOND
     1    18    19    1
     2    19    12    1
     3    12    13   ar
     4    13    14   ar
     5    14    15   ar
     6    15     1    1
     7     1     2   ar
     8     2     3    1
     9     2     4   ar
    10     4     5   ar
    11     5     6   ar
    12     6    20    1
    13    20    21    1
    14    20    22    1
    15    20    23    1
    16     6     7   ar
    17     7     8   ar
    18     8     9    1
    19     8    10   ar
    20    10    11   ar
    21    15    16   ar
    22    16    17   ar
    23    17    12   ar
    24    11     1   ar
    25    11     5   ar
@<TRIPOS>MOLECULE
*****
 23 25 0 0 0
SMALL
GASTEIGER

@<TRIPOS>ATOM
      1 C          62.9248   85.0968   12.1875 C.ar    1  UNL1        0.0510
      2 C          63.6356   85.8818   13.2498 C.ar    1  UNL1        0.0823
      3 C          64.4164   85.3093   14.3955 C.3     1  UNL1        0.0540
      4 N          63.4285   87.3400   12.9652 N.ar    1  UNL1       -0.1681
      5 N          62.5897   87.4561   11.7271 N.ar    1  UNL1       -0.2085
      6 C          62.0691   88.6450   10.9752 C.ar    1  UNL1        0.1569
      7 C          61.2373   88.4476    9.7427 C.ar    1  UNL1        0.0379
      8 C          60.9261   87.0612    9.2621 C.ar    1  UNL1        0.0625
      9 C          60.0942   86.8639    8.0295 C.3     1  UNL1        0.0522
     10 N          61.4466   85.8723   10.0139 N.ar    1  UNL1       -0.2308
     11 C          62.2784   86.0697   11.2464 C.ar    1  UNL1        0.1644
     12 C          62.7605   80.6104   11.8782 C.ar    1  UNL1        0.1387
     13 C          63.3350   81.4192   10.7531 C.ar    1  UNL1        0.0369
     14 C          63.3897   82.9147   10.8563 C.ar    1  UNL1        0.0032
     15 C          62.8701   83.6013   12.0844 C.ar    1  UNL1        0.0043
     16 C          62.2956   82.7924   13.2095 C.ar    1  UNL1        0.0032
     17 C          62.2409   81.2970   13.1064 C.ar    1  UNL1        0.0369
     18 C          62.7595   78.4534   10.4299 C.3     1  UNL1        0.2525
     19 O          62.7058   79.1149   11.7751 O.3     1  UNL1       -0.4714
     20 C          62.3804   90.0314   11.4559 C.3     1  UNL1        0.4350
     21 F          62.6917   91.4178   11.9366 F       1  UNL1       -0.1644
     22 F          63.3101   90.2252   10.2949 F       1  UNL1       -0.1644
     23 F          61.4507   89.8376   12.6170 F       1  UNL1       -0.1644
@<TRIPOS>BOND
     1    18    19    1
     2    19    12    1
     3    12    13   ar
     4    13    14   ar
     5    14    15   ar
     6    15     1    1
     7     1     2   ar
     8     2     3    1
     9     2     4   ar
    10     4     5   ar
    11     5     6   ar
    12     6    20    1
    13    20    21    1
    14    20    22    1
    15    20    23    1
    16     6     7   ar
    17     7     8   ar
    18     8     9    1
    19     8    10   ar
    20    10    11   ar
    21    15    16   ar
    22    16    17   ar
    23    17    12   ar
    24    11     1   ar
    25    11     5   ar
@<TRIPOS>MOLECULE
*****
 23 25 0 0 0
SMALL
GASTEIGER

@<TRIPOS>ATOM
      1 C          63.1772   89.4297   11.7833 C.ar    1  UNL1        0.0510
      2 C          62.6943   90.0283   10.4955 C.ar    1  UNL1        0.0823
      3 C          62.7706   91.4768   10.1132 C.3     1  UNL1        0.0540
      4 N          62.1217   88.9241    9.6571 N.ar    1  UNL1       -0.1681
      5 N          62.2507   87.6431   10.4267 N.ar    1  UNL1       -0.2085
      6 C          61.8584   86.2325   10.1007 C.ar    1  UNL1        0.1569
      7 C          62.1185   85.1344   11.0888 C.ar    1  UNL1        0.0379
      8 C          62.7708   85.4468   12.4029 C.ar    1  UNL1        0.0625
      9 C          63.0309   84.3486   13.3910 C.3     1  UNL1        0.0522
     10 N          63.1631   86.8574   12.7289 N.ar    1  UNL1       -0.2308
     11 C          62.9030   87.9555   11.7408 C.ar    1  UNL1        0.1644
     12 C          65.1093   91.6639   15.1782 C.ar    1  UNL1        0.1387
     13 C          64.0153   90.6762   15.4567 C.ar    1  UNL1        0.0369
     14 C          63.3712   89.9315   14.3250 C.ar    1  UNL1        0.0032
     15 C          63.8212   90.1744   12.9149 C.ar    1  UNL1        0.0043
     16 C          64.9153   91.1621   12.6364 C.ar    1  UNL1        0.0032
     17 C          65.5593   91.9069   13.7681 C.ar    1  UNL1        0.0369
     18 C          67.1857   92.8411   16.2042 C.3     1  UNL1        0.2525
     19 O          65.7533   92.4087   16.3099 O.3     1  UNL1       -0.4714
     20 C          61.2060   85.9201    8.7867 C.3     1  UNL1        0.4350
     21 F          60.5537   85.6076    7.4726 F       1  UNL1       -0.1644
     22 F          62.5013   85.3613    8.2765 F       1  UNL1       -0.1644
     23 F          59.9108   86.4788    9.2968 F       1  UNL1       -0.1644
@<TRIPOS>BOND
     1    18    19    1
     2    19    12    1
     3    12    13   ar
     4    13    14   ar
     5    14    15   ar
     6    15     1    1
     7     1     2   ar
     8     2     3    1
     9     2     4   ar
    10     4     5   ar
    11     5     6   ar
    12     6    20    1
    13    20    21    1
    14    20    22    1
    15    20    23    1
    16     6     7   ar
    17     7     8   ar
    18     8     9    1
    19     8    10   ar
    20    10    11   ar
    21    15    16   ar
    22    16    17   ar
    23    17    12   ar
    24    11     1   ar
    25    11     5   ar
@<TRIPOS>MOLECULE
*****
 23 25 0 0 0
SMALL
GASTEIGER

@<TRIPOS>ATOM
      1 C          63.9227   90.0882   12.9068 C.ar    1  UNL1        0.0510
      2 C          64.3291   89.4407   14.1973 C.ar    1  UNL1        0.0823
      3 C          63.7659   88.1702   14.7620 C.3     1  UNL1        0.0540
      4 N          65.3974   90.2867   14.8241 N.ar    1  UNL1       -0.1681
      5 N          65.6514   91.4571   13.9209 N.ar    1  UNL1       -0.2085
      6 C          66.5947   92.6186   14.0244 C.ar    1  UNL1        0.1569
      7 C          66.6267   93.6575   12.9429 C.ar    1  UNL1        0.0379
      8 C          65.7152   93.5348   11.7579 C.ar    1  UNL1        0.0625
      9 C          65.7472   94.5738   10.6764 C.3     1  UNL1        0.0522
     10 N          64.7719   92.3733   11.6544 N.ar    1  UNL1       -0.2308
     11 C          64.7399   91.3344   12.7359 C.ar    1  UNL1        0.1644
     12 C          60.8001   88.5605   10.0491 C.ar    1  UNL1        0.1387
     13 C          61.8058   87.6153   10.6366 C.ar    1  UNL1        0.0369
     14 C          62.8467   88.1246   11.5891 C.ar    1  UNL1        0.0032
     15 C          62.8819   89.5789   11.9542 C.ar    1  UNL1        0.0043
     16 C          61.8761   90.5242   11.3668 C.ar    1  UNL1        0.0032
     17 C          60.8352   90.0150   10.4143 C.ar    1  UNL1        0.0369
     18 C          59.9183   86.7005    8.4639 C.3     1  UNL1        0.2525
     19 O          59.7593   88.0512    9.0966 O.3     1  UNL1       -0.4714
     20 C          67.5062   92.7413   15.2094 C.3     1  UNL1        0.4350
     21 F          68.4176   92.8640   16.3944 F       1  UNL1       -0.1644
     22 F          66.3299   93.0705   16.0801 F       1  UNL1       -0.1644
     23 F          68.6825   92.4122   14.3387 F       1  UNL1       -0.1644
@<TRIPOS>BOND
     1    18    19    1
     2    19    12    1
     3    12    13   ar
     4    13    14   ar
     5    14    15   ar
     6    15     1    1
     7     1     2   ar
     8     2     3    1
     9     2     4   ar
    10     4     5   ar
    11     5     6   ar
    12     6    20    1
    13    20    21    1
    14    20    22    1
    15    20    23    1
    16     6     7   ar
    17     7     8   ar
    18     8     9    1
    19     8    10   ar
    20    10    11   ar
    21    15    16   ar
    22    16    17   ar
    23    17    12   ar
    24    11     1   ar
    25    11     5   ar
@<TRIPOS>MOLECULE
*****
 23 25 0 0 0
SMALL
GASTEIGER

@<TRIPOS>ATOM
      1 C          63.0285   84.8197   11.9111 C.ar    1  UNL1        0.0510
      2 C          63.6460   83.6725   11.1678 C.ar    1  UNL1        0.0823
      3 C          64.4853   82.5832   11.7670 C.3     1  UNL1        0.0540
      4 N          63.2769   83.8059    9.7201 N.ar    1  UNL1       -0.1681
      5 N          62.4313   85.0355    9.5686 N.ar    1  UNL1       -0.2085
      6 C          61.7813   85.6656    8.3726 C.ar    1  UNL1        0.1569
      7 C          60.9777   86.9222    8.5308 C.ar    1  UNL1        0.0379
      8 C          60.8241   87.5488    9.8850 C.ar    1  UNL1        0.0625
      9 C          60.0205   88.8055   10.0432 C.3     1  UNL1        0.0522
     10 N          61.4742   86.9188   11.0810 N.ar    1  UNL1       -0.2308
     11 C          62.2777   85.6621   10.9228 C.ar    1  UNL1        0.1644
     12 C          63.3683   85.5976   16.3304 C.ar    1  UNL1        0.1387
     13 C          64.1367   86.4434   15.3587 C.ar    1  UNL1        0.0369
     14 C          64.0234   86.1841   13.8856 C.ar    1  UNL1        0.0032
     15 C          63.1418   85.0791   13.3842 C.ar    1  UNL1        0.0043
     16 C          62.3733   84.2332   14.3560 C.ar    1  UNL1        0.0032
     17 C          62.4866   84.4925   15.8290 C.ar    1  UNL1        0.0369
     18 C          62.6542   86.9334   18.4413 C.3     1  UNL1        0.2525
     19 O          63.4816   85.8570   17.8035 O.3     1  UNL1       -0.4714
     20 C          61.9348   85.0390    7.0185 C.3     1  UNL1        0.4350
     21 F          62.0884   84.4124    5.6643 F       1  UNL1       -0.1644
     22 F          63.4269   85.0955    7.1615 F       1  UNL1       -0.1644
     23 F          60.4428   84.9825    6.8754 F       1  UNL1       -0.1644
@<TRIPOS>BOND
     1    18    19    1
     2    19    12    1
     3    12    13   ar
     4    13    14   ar
     5    14    15   ar
     6    15     1    1
     7     1     2   ar
     8     2     3    1
     9     2     4   ar
    10     4     5   ar
    11     5     6   ar
    12     6    20    1
    13    20    21    1
    14    20    22    1
    15    20    23    1
    16     6     7   ar
    17     7     8   ar
    18     8     9    1
    19     8    10   ar
    20    10    11   ar
    21    15    16   ar
    22    16    17   ar
    23    17    12   ar
    24    11     1   ar
    25    11     5   ar
@<TRIPOS>MOLECULE
*****
 23 25 0 0 0
SMALL
GASTEIGER

@<TRIPOS>ATOM
      1 C          64.3182   90.4627   13.5676 C.ar    1  UNL1        0.0510
      2 C          63.6967   90.6639   12.2173 C.ar    1  UNL1        0.0823
      3 C          62.6558   89.7873   11.5864 C.3     1  UNL1        0.0540
      4 N          64.2988   91.8956   11.6088 N.ar    1  UNL1       -0.1681
      5 N          65.2925   92.4557   12.5829 N.ar    1  UNL1       -0.2085
      6 C          66.1879   93.6576   12.5240 C.ar    1  UNL1        0.1569
      7 C          67.0953   93.9740   13.6757 C.ar    1  UNL1        0.0379
      8 C          67.1073   93.0884   14.8863 C.ar    1  UNL1        0.0625
      9 C          68.0148   93.4049   16.0381 C.3     1  UNL1        0.0522
     10 N          66.2119   91.8865   14.9453 N.ar    1  UNL1       -0.2308
     11 C          65.3045   91.5701   13.7936 C.ar    1  UNL1        0.1644
     12 C          63.3876   87.1233   16.4368 C.ar    1  UNL1        0.1387
     13 C          63.0443   88.5385   16.7963 C.ar    1  UNL1        0.0369
     14 C          63.3545   89.6516   15.8398 C.ar    1  UNL1        0.0032
     15 C          64.0080   89.3496   14.5240 C.ar    1  UNL1        0.0043
     16 C          64.3514   87.9343   14.1645 C.ar    1  UNL1        0.0032
     17 C          64.0412   86.8212   15.1209 C.ar    1  UNL1        0.0369
     18 C          62.6757   84.6626   16.8709 C.3     1  UNL1        0.2525
     19 O          63.0774   86.0102   17.3932 O.3     1  UNL1       -0.4714
     20 C          66.1759   94.5432   11.3134 C.3     1  UNL1        0.4350
     21 F          66.1639   95.4288   10.1028 F       1  UNL1       -0.1644
     22 F          66.0003   95.7447   12.1940 F       1  UNL1       -0.1644
     23 F          66.3515   93.3417   10.4327 F       1  UNL1       -0.1644
@<TRIPOS>BOND
     1    18    19    1
     2    19    12    1
     3    12    13   ar
     4    13    14   ar
     5    14    15   ar
     6    15     1    1
     7     1     2   ar
     8     2     3    1
     9     2     4   ar
    10     4     5   ar
    11     5     6   ar
    12     6    20    1
    13    20    21    1
    14    20    22    1
    15    20    23    1
    16     6     7   ar
    17     7     8   ar
    18     8     9    1
    19     8    10   ar
    20    10    11   ar
    21    15    16   ar
    22    16    17   ar
    23    17    12   ar
    24    11     1   ar
    25    11     5   ar
@<TRIPOS>MOLECULE
*****
 23 25 0 0 0
SMALL
GASTEIGER

@<TRIPOS>ATOM
      1 C          63.5374   86.0352   13.9946 C.ar    1  UNL1        0.0510
      2 C          63.4091   85.3356   15.3152 C.ar    1  UNL1        0.0823
      3 C          63.4627   85.9853   16.6661 C.3     1  UNL1        0.0540
      4 N          63.2176   83.8721   15.0477 N.ar    1  UNL1       -0.1681
      5 N          63.2277   83.6673   13.5617 N.ar    1  UNL1       -0.2085
      6 C          63.0824   82.4361   12.7173 C.ar    1  UNL1        0.1569
      7 C          63.1347   82.5419   11.2220 C.ar    1  UNL1        0.0379
      8 C          63.3324   83.8788   10.5711 C.ar    1  UNL1        0.0625
      9 C          63.3848   83.9846    9.0757 C.3     1  UNL1        0.0522
     10 N          63.4777   85.1099   11.4156 N.ar    1  UNL1       -0.2308
     11 C          63.4253   85.0042   12.9109 C.ar    1  UNL1        0.1644
     12 C          64.1512   90.4520   13.3899 C.ar    1  UNL1        0.1387
     13 C          63.4026   89.6517   12.3657 C.ar    1  UNL1        0.0369
     14 C          63.1980   88.1794   12.5673 C.ar    1  UNL1        0.0032
     15 C          63.7420   87.5075   13.7930 C.ar    1  UNL1        0.0043
     16 C          64.4907   88.3078   14.8173 C.ar    1  UNL1        0.0032
     17 C          64.6953   89.7801   14.6157 C.ar    1  UNL1        0.0369
     18 C          65.3079   92.4122   12.1370 C.3     1  UNL1        0.2525
     19 O          64.3558   91.9243   13.1884 O.3     1  UNL1       -0.4714
     20 C          62.8847   81.0992   13.3681 C.3     1  UNL1        0.4350
     21 F          62.6870   79.7623   14.0190 F       1  UNL1       -0.1644
     22 F          64.3716   80.9233   13.4584 F       1  UNL1       -0.1644
     23 F          61.3978   81.2751   13.2778 F       1  UNL1       -0.1644
@<TRIPOS>BOND
     1    18    19    1
     2    19    12    1
     3    12    13   ar
     4    13    14   ar
     5    14    15   ar
     6    15     1    1
     7     1     2   ar
     8     2     3    1
     9     2     4   ar
    10     4     5   ar
    11     5     6   ar
    12     6    20    1
    13    20    21    1
    14    20    22    1
    15    20    23    1
    16     6     7   ar
    17     7     8   ar
    18     8     9    1
    19     8    10   ar
    20    10    11   ar
    21    15    16   ar
    22    16    17   ar
    23    17    12   ar
    24    11     1   ar
    25    11     5   ar
@<TRIPOS>MOLECULE
*****
 23 25 0 0 0
SMALL
GASTEIGER

@<TRIPOS>ATOM
      1 C          63.2575   90.4914   12.0234 C.ar    1  UNL1        0.0510
      2 C          64.1383   91.6012   11.5308 C.ar    1  UNL1        0.0823
      3 C          64.2186   92.1027   10.1194 C.3     1  UNL1        0.0540
      4 N          64.9246   92.1215   12.6974 N.ar    1  UNL1       -0.1681
      5 N          64.5299   91.3332   13.9111 N.ar    1  UNL1       -0.2085
      6 C          64.9755   91.4027   15.3416 C.ar    1  UNL1        0.1569
      7 C          64.3908   90.4647   16.3556 C.ar    1  UNL1        0.0379
      8 C          63.3605   89.4572   15.9391 C.ar    1  UNL1        0.0625
      9 C          62.7758   88.5192   16.9532 C.3     1  UNL1        0.0522
     10 N          62.9149   89.3878   14.5085 N.ar    1  UNL1       -0.2308
     11 C          63.4995   90.3258   13.4945 C.ar    1  UNL1        0.1644
     12 C          60.3922   88.0819    9.5265 C.ar    1  UNL1        0.1387
     13 C          61.5781   87.4164   10.1596 C.ar    1  UNL1        0.0369
     14 C          62.5332   88.2196   10.9919 C.ar    1  UNL1        0.0032
     15 C          62.3025   89.6882   11.1911 C.ar    1  UNL1        0.0043
     16 C          61.1165   90.3538   10.5580 C.ar    1  UNL1        0.0032
     17 C          60.1614   89.5506    9.7257 C.ar    1  UNL1        0.0369
     18 C          59.9531   86.1885    7.8025 C.3     1  UNL1        0.2525
     19 O          59.4371   87.2787    8.6942 O.3     1  UNL1       -0.4714
     20 C          66.0058   92.4101   15.7582 C.3     1  UNL1        0.4350
     21 F          67.0361   93.4175   16.1747 F       1  UNL1       -0.1644
     22 F          65.0592   92.9525   16.7877 F       1  UNL1       -0.1644
     23 F          66.9524   91.8677   14.7287 F       1  UNL1       -0.1644
@<TRIPOS>BOND
     1    18    19    1
     2    19    12    1
     3    12    13   ar
     4    13    14   ar
     5    14    15   ar
     6    15     1    1
     7     1     2   ar
     8     2     3    1
     9     2     4   ar
    10     4     5   ar
    11     5     6   ar
    12     6    20    1
    13    20    21    1
    14    20    22    1
    15    20    23    1
    16     6     7   ar
    17     7     8   ar
    18     8     9    1
    19     8    10   ar
    20    10    11   ar
    21    15    16   ar
    22    16    17   ar
    23    17    12   ar
    24    11     1   ar
    25    11     5   ar
