@<TRIPOS>MOLECULE
*****
 53 56 0 0 0
SMALL
GASTEIGER

@<TRIPOS>ATOM
      1 C          62.7869   89.8476   10.8814 C.3     1  UNL1        0.0760
      2 C          63.6904   90.1182   13.3023 C.2     1  UNL1        0.2418
      3 O          63.0146   91.4534   13.4052 O.2     1  UNL1       -0.2733
      4 N          63.5765   89.3153   12.0403 N.am    1  UNL1       -0.3043
      5 H          64.0200   88.4389   11.9728 H       1  UNL1        0.1494
      6 C          64.4799   89.5859   14.4613 C.3     1  UNL1        0.1658
      7 N          63.4949   86.1100   16.1038 N.am    1  UNL1       -0.2567
      8 C          62.5439   85.5699   17.1304 C.3     1  UNL1        0.1168
      9 C          63.5119   87.5779   15.7958 C.2     1  UNL1        0.3046
     10 O          62.5778   88.5058   16.5145 O.2     1  UNL1       -0.2526
     11 N          64.4629   88.1179   14.7692 N.am    1  UNL1       -0.2813
     12 H          65.0760   87.5088   14.2976 H       1  UNL1        0.1514
     13 C          64.4290   85.1820   15.3851 C.3     1  UNL1        0.1413
     14 C          63.4801   82.8565   12.4258 C.ar    1  UNL1        0.0875
     15 N          64.2665   84.0013   12.9925 N.ar    1  UNL1       -0.2453
     16 C          63.8842   84.1575   14.4345 C.ar    1  UNL1        0.0858
     17 C          62.8615   83.1093   14.7591 C.ar    1  UNL1        0.0530
     18 S          62.6117   82.3052   13.5177 S.2     1  UNL1       -0.0705
     19 C          63.1029   80.9560   10.6949 C.3     1  UNL1        0.0069
     20 C          63.5497   82.3517   11.0150 C.3     1  UNL1        0.0465
     21 C          64.0661   83.2427    9.9244 C.3     1  UNL1        0.0069
     22 C          65.2865   90.5214   15.3122 C.3     1  UNL1        0.1015
     23 N          64.5951   91.4778   16.2381 N.3     1  UNL1       -0.2685
     24 C          63.1767   91.2247   16.6553 C.3     1  UNL1        0.0897
     25 C          65.3221   92.6871   16.7469 C.3     1  UNL1        0.0897
     26 C          63.3948   90.8680    9.9653 C.3     1  UNL1        0.0216
     27 C          63.8840   92.1742   10.5170 C.3     1  UNL1        0.0217
     28 C          65.3567   92.4358   10.6309 C.3     1  UNL1        0.0792
     29 N          65.9972   93.4980    9.7875 N.am    1  UNL1       -0.2720
     30 C          67.3586   93.2700    9.2003 C.2     1  UNL1        0.4019
     31 O          68.0794   91.9798    9.4566 O.2     1  UNL1       -0.2264
     32 H          65.5241   94.3449    9.6193 H       1  UNL1        0.1527
     33 O          67.9991   94.3322    8.3568 O.3     1  UNL1       -0.4291
     34 C          67.8161   95.7793    8.7065 C.3     1  UNL1        0.2447
     35 C          66.6651   96.2024    9.5704 C.ar    1  UNL1        0.0714
     36 C          66.7164   96.4486   11.0491 C.ar    1  UNL1        0.1053
     37 N          65.3437   96.8520   11.4998 N.ar    1  UNL1       -0.2350
     38 C          64.4441   96.8551   10.2996 C.ar    1  UNL1        0.1343
     39 S          65.2607   96.4536    9.1071 S.2     1  UNL1       -0.0652
     40 C          66.1888   91.6352   11.5883 C.3     1  UNL1        0.0460
     41 C          66.8322   92.3063   12.7654 C.ar    1  UNL1       -0.0205
     42 C          68.0044   91.6643   13.4464 C.ar    1  UNL1       -0.0042
     43 C          68.6478   92.3354   14.6235 C.ar    1  UNL1       -0.0003
     44 C          68.1190   93.6485   15.1196 C.ar    1  UNL1       -0.0000
     45 C          66.9469   94.2905   14.4386 C.ar    1  UNL1       -0.0003
     46 C          66.3035   93.6194   13.2615 C.ar    1  UNL1       -0.0042
     47 C          61.3895   89.3595   10.6385 C.3     1  UNL1        0.0459
     48 C          61.1458   88.2263    9.6864 C.ar    1  UNL1       -0.0205
     49 C          62.1395   87.1076    9.5819 C.ar    1  UNL1       -0.0042
     50 C          61.8958   85.9744    8.6298 C.ar    1  UNL1       -0.0003
     51 C          60.6583   85.9599    7.7822 C.ar    1  UNL1       -0.0000
     52 C          59.6645   87.0786    7.8868 C.ar    1  UNL1       -0.0003
     53 C          59.9082   88.2118    8.8388 C.ar    1  UNL1       -0.0042
@<TRIPOS>BOND
     1    19    20    1
     2    20    21    1
     3    20    14    1
     4    14    15   ar
     5    15    16   ar
     6    16    13    1
     7    13     7    1
     8     7     8    1
     9     7     9   am
    10     9    10    2
    11     9    11   am
    12    11     6    1
    13     6    22    1
    14    22    23    1
    15    23    24    1
    16    23    25    1
    17     6     2    1
    18     2     3    2
    19     2     4   am
    20     4     1    1
    21     1    26    1
    22    26    27    1
    23    28    27    1
    24    28    40    1
    25    40    41    1
    26    41    42   ar
    27    42    43   ar
    28    43    44   ar
    29    44    45   ar
    30    45    46   ar
    31    28    29    1
    32    29    30   am
    33    30    31    2
    34    30    33    1
    35    33    34    1
    36    34    35    1
    37    35    36   ar
    38    36    37   ar
    39    37    38   ar
    40    38    39   ar
    41     1    47    1
    42    47    48    1
    43    48    49   ar
    44    49    50   ar
    45    50    51   ar
    46    51    52   ar
    47    52    53   ar
    48    16    17   ar
    49    17    18   ar
    50    18    14   ar
    51    46    41   ar
    52    39    35   ar
    53    53    48   ar
    54    11    12    1
    55     4     5    1
    56    29    32    1
@<TRIPOS>MOLECULE
*****
 53 56 0 0 0
SMALL
GASTEIGER

@<TRIPOS>ATOM
      1 C          62.4299   88.9235   11.1467 C.3     1  UNL1        0.0760
      2 C          63.1623   88.1673   13.5220 C.2     1  UNL1        0.2418
      3 O          62.6992   89.4793   14.0825 O.2     1  UNL1       -0.2733
      4 N          63.0276   87.8894   12.0541 N.am    1  UNL1       -0.3043
      5 H          63.3316   87.0282   11.6862 H       1  UNL1        0.1494
      6 C          63.7600   87.1332   14.4294 C.3     1  UNL1        0.1658
      7 N          63.0030   83.2599   14.0118 N.am    1  UNL1       -0.2567
      8 C          62.0253   82.2357   14.5071 C.3     1  UNL1        0.1168
      9 C          62.8927   84.6845   14.4682 C.2     1  UNL1        0.3046
     10 O          61.8047   85.0850   15.4200 O.2     1  UNL1       -0.2526
     11 N          63.8703   85.7085   13.9729 N.am    1  UNL1       -0.2813
     12 H          64.5844   85.4457   13.3483 H       1  UNL1        0.1514
     13 C          64.0910   82.8594   13.0600 C.3     1  UNL1        0.1413
     14 C          63.3933   84.1933    9.4823 C.ar    1  UNL1        0.0875
     15 N          63.3512   84.3566   10.9728 N.ar    1  UNL1       -0.2453
     16 C          63.9366   83.1217   11.5912 C.ar    1  UNL1        0.0858
     17 C          64.3405   82.1952   10.4828 C.ar    1  UNL1        0.0530
     18 S          64.0047   82.8574    9.1795 S.2     1  UNL1       -0.0705
     19 C          63.0078   86.6593    8.7610 C.3     1  UNL1        0.0069
     20 C          62.9090   85.1907    8.4721 C.3     1  UNL1        0.0465
     21 C          62.3259   84.7195    7.1729 C.3     1  UNL1        0.0069
     22 C          64.2475   87.5237   15.7931 C.3     1  UNL1        0.1015
     23 N          63.2648   87.9079   16.8593 N.3     1  UNL1       -0.2685
     24 C          62.7150   86.8629   17.7843 C.3     1  UNL1        0.0897
     25 C          62.8318   89.3370   17.0005 C.3     1  UNL1        0.0897
     26 C          63.3210   89.8707   10.3994 C.3     1  UNL1        0.0216
     27 C          63.3677   91.3193   10.7860 C.3     1  UNL1        0.0217
     28 C          64.4490   91.8176   11.6985 C.3     1  UNL1        0.0792
     29 N          64.1244   92.1829   13.1166 N.am    1  UNL1       -0.2720
     30 C          64.7984   91.4660   14.2489 C.2     1  UNL1        0.4019
     31 O          65.7969   90.3839   13.9630 O.2     1  UNL1       -0.2264
     32 H          63.4689   92.8931   13.3043 H       1  UNL1        0.1527
     33 O          64.4737   91.8313   15.6670 O.3     1  UNL1       -0.4291
     34 C          65.4473   92.6361   16.4759 C.3     1  UNL1        0.2447
     35 C          66.8561   92.8151   15.9929 C.ar    1  UNL1        0.0714
     36 C          67.3100   93.7765   14.9348 C.ar    1  UNL1        0.1053
     37 N          68.7928   93.6196   14.7712 N.ar    1  UNL1       -0.2350
     38 C          69.2553   92.5613   15.7282 C.ar    1  UNL1        0.1343
     39 S          68.0584   92.0640   16.4833 S.2     1  UNL1       -0.0652
     40 C          65.8549   91.9505   11.1928 C.3     1  UNL1        0.0460
     41 C          66.3282   93.2568   10.6273 C.ar    1  UNL1       -0.0205
     42 C          67.4031   93.2758    9.5813 C.ar    1  UNL1       -0.0042
     43 C          67.8763   94.5820    9.0158 C.ar    1  UNL1       -0.0003
     44 C          67.2746   95.8693    9.4963 C.ar    1  UNL1       -0.0000
     45 C          66.1996   95.8503   10.5422 C.ar    1  UNL1       -0.0003
     46 C          65.7264   94.5441   11.1077 C.ar    1  UNL1       -0.0042
     47 C          60.9409   89.0103   10.9867 C.3     1  UNL1        0.0459
     48 C          60.2953   88.5489    9.7138 C.ar    1  UNL1       -0.0205
     49 C          60.1432   89.4987    8.5629 C.ar    1  UNL1       -0.0042
     50 C          59.4976   89.0374    7.2899 C.ar    1  UNL1       -0.0003
     51 C          59.0040   87.6262    7.1679 C.ar    1  UNL1       -0.0000
     52 C          59.1561   86.6763    8.3189 C.ar    1  UNL1       -0.0003
     53 C          59.8017   87.1376    9.5918 C.ar    1  UNL1       -0.0042
@<TRIPOS>BOND
     1    19    20    1
     2    20    21    1
     3    20    14    1
     4    14    15   ar
     5    15    16   ar
     6    16    13    1
     7    13     7    1
     8     7     8    1
     9     7     9   am
    10     9    10    2
    11     9    11   am
    12    11     6    1
    13     6    22    1
    14    22    23    1
    15    23    24    1
    16    23    25    1
    17     6     2    1
    18     2     3    2
    19     2     4   am
    20     4     1    1
    21     1    26    1
    22    26    27    1
    23    28    27    1
    24    28    40    1
    25    40    41    1
    26    41    42   ar
    27    42    43   ar
    28    43    44   ar
    29    44    45   ar
    30    45    46   ar
    31    28    29    1
    32    29    30   am
    33    30    31    2
    34    30    33    1
    35    33    34    1
    36    34    35    1
    37    35    36   ar
    38    36    37   ar
    39    37    38   ar
    40    38    39   ar
    41     1    47    1
    42    47    48    1
    43    48    49   ar
    44    49    50   ar
    45    50    51   ar
    46    51    52   ar
    47    52    53   ar
    48    16    17   ar
    49    17    18   ar
    50    18    14   ar
    51    46    41   ar
    52    39    35   ar
    53    53    48   ar
    54    11    12    1
    55     4     5    1
    56    29    32    1
@<TRIPOS>MOLECULE
*****
 53 56 0 0 0
SMALL
GASTEIGER

@<TRIPOS>ATOM
      1 C          63.7422   89.5068   13.3128 C.3     1  UNL1        0.0760
      2 C          61.8338   88.5408   11.8380 C.2     1  UNL1        0.2418
      3 O          60.8669   89.5064   12.4566 O.2     1  UNL1       -0.2733
      4 N          63.2715   88.5409   12.2661 N.am    1  UNL1       -0.3043
      5 H          63.9060   87.9071   11.8601 H       1  UNL1        0.1494
      6 C          61.3631   87.5749   10.7914 C.3     1  UNL1        0.1658
      7 N          62.9796   84.6624    8.6339 N.am    1  UNL1       -0.2567
      8 C          62.8678   84.0740    7.2587 C.3     1  UNL1        0.1168
      9 C          62.1154   85.8244    9.0250 C.2     1  UNL1        0.3046
     10 O          61.1394   86.3980    8.0409 O.2     1  UNL1       -0.2526
     11 N          62.2272   86.4128   10.4002 N.am    1  UNL1       -0.2813
     12 H          62.8678   86.0364   11.0461 H       1  UNL1        0.1514
     13 C          63.9556   84.0889    9.6181 C.3     1  UNL1        0.1413
     14 C          62.5612   82.0328   12.6004 C.ar    1  UNL1        0.0875
     15 N          62.9316   82.1539   11.1519 N.ar    1  UNL1       -0.2453
     16 C          63.4666   83.5366   10.9243 C.ar    1  UNL1        0.0858
     17 C          63.4270   84.2701   12.2321 C.ar    1  UNL1        0.0530
     18 S          62.8674   83.3408   13.2680 S.2     1  UNL1       -0.0705
     19 C          60.7600   80.9399   14.1207 C.3     1  UNL1        0.0069
     20 C          61.9857   80.8173   13.2647 C.3     1  UNL1        0.0465
     21 C          62.6358   79.4792   13.0729 C.3     1  UNL1        0.0069
     22 C          60.0282   87.7710   10.1359 C.3     1  UNL1        0.1015
     23 N          59.8751   88.7746    9.0317 N.3     1  UNL1       -0.2685
     24 C          58.9279   88.5061    7.9001 C.3     1  UNL1        0.0897
     25 C          60.6692   90.0469    9.0592 C.3     1  UNL1        0.0897
     26 C          63.3789   90.9586   13.2113 C.3     1  UNL1        0.0216
     27 C          64.3154   91.9210   12.5429 C.3     1  UNL1        0.0217
     28 C          65.6742   92.1730   13.1263 C.3     1  UNL1        0.0792
     29 N          66.8593   92.3401   12.2221 N.am    1  UNL1       -0.2720
     30 C          66.6631   92.4323   10.7378 C.2     1  UNL1        0.4019
     31 O          65.2819   92.3574   10.1578 O.2     1  UNL1       -0.2264
     32 H          67.7659   92.3893   12.6028 H       1  UNL1        0.1527
     33 O          67.8483   92.5994    9.8336 O.3     1  UNL1       -0.4291
     34 C          68.2917   93.9727    9.4245 C.3     1  UNL1        0.2447
     35 C          67.3113   95.1079    9.4226 C.ar    1  UNL1        0.0714
     36 C          66.7310   95.7737   10.6350 C.ar    1  UNL1        0.1053
     37 N          65.8001   96.8540   10.1698 N.ar    1  UNL1       -0.2350
     38 C          65.8050   96.8559    8.6698 C.ar    1  UNL1        0.1343
     39 S          66.7390   95.7768    8.2081 S.2     1  UNL1       -0.0652
     40 C          65.8478   92.2578   14.6138 C.3     1  UNL1        0.0460
     41 C          67.1576   92.7055   15.1917 C.ar    1  UNL1       -0.0205
     42 C          67.5442   94.1539   15.1401 C.ar    1  UNL1       -0.0042
     43 C          68.8539   94.6016   15.7180 C.ar    1  UNL1       -0.0003
     44 C          69.7772   93.6009   16.3475 C.ar    1  UNL1       -0.0000
     45 C          69.3906   92.1525   16.3991 C.ar    1  UNL1       -0.0003
     46 C          68.0808   91.7048   15.8212 C.ar    1  UNL1       -0.0042
     47 C          64.5762   89.0209   14.4610 C.3     1  UNL1        0.0459
     48 C          64.0070   88.0337   15.4364 C.ar    1  UNL1       -0.0205
     49 C          64.2201   86.5638   15.2265 C.ar    1  UNL1       -0.0042
     50 C          63.6509   85.5766   16.2019 C.ar    1  UNL1       -0.0003
     51 C          62.8686   86.0592   17.3872 C.ar    1  UNL1       -0.0000
     52 C          62.6555   87.5291   17.5972 C.ar    1  UNL1       -0.0003
     53 C          63.2247   88.5164   16.6218 C.ar    1  UNL1       -0.0042
@<TRIPOS>BOND
     1    19    20    1
     2    20    21    1
     3    20    14    1
     4    14    15   ar
     5    15    16   ar
     6    16    13    1
     7    13     7    1
     8     7     8    1
     9     7     9   am
    10     9    10    2
    11     9    11   am
    12    11     6    1
    13     6    22    1
    14    22    23    1
    15    23    24    1
    16    23    25    1
    17     6     2    1
    18     2     3    2
    19     2     4   am
    20     4     1    1
    21     1    26    1
    22    26    27    1
    23    28    27    1
    24    28    40    1
    25    40    41    1
    26    41    42   ar
    27    42    43   ar
    28    43    44   ar
    29    44    45   ar
    30    45    46   ar
    31    28    29    1
    32    29    30   am
    33    30    31    2
    34    30    33    1
    35    33    34    1
    36    34    35    1
    37    35    36   ar
    38    36    37   ar
    39    37    38   ar
    40    38    39   ar
    41     1    47    1
    42    47    48    1
    43    48    49   ar
    44    49    50   ar
    45    50    51   ar
    46    51    52   ar
    47    52    53   ar
    48    16    17   ar
    49    17    18   ar
    50    18    14   ar
    51    46    41   ar
    52    39    35   ar
    53    53    48   ar
    54    11    12    1
    55     4     5    1
    56    29    32    1
@<TRIPOS>MOLECULE
*****
 53 56 0 0 0
SMALL
GASTEIGER

@<TRIPOS>ATOM
      1 C          62.2434   86.2331   10.6376 C.3     1  UNL1        0.0760
      2 C          62.7227   88.6501   11.4614 C.2     1  UNL1        0.2418
      3 O          63.1007   89.0507   10.0662 O.2     1  UNL1       -0.2733
      4 N          62.2941   87.2413   11.7471 N.am    1  UNL1       -0.3043
      5 H          62.0460   86.9784   12.6629 H       1  UNL1        0.1494
      6 C          62.7734   89.6583   12.5708 C.3     1  UNL1        0.1658
      7 N          65.5351   91.5939   14.6628 N.am    1  UNL1       -0.2567
      8 C          65.6849   92.2633   15.9968 C.3     1  UNL1        0.1168
      9 C          64.2292   90.9608   14.2838 C.2     1  UNL1        0.3046
     10 O          63.0730   90.9970   15.2389 O.2     1  UNL1       -0.2526
     11 N          64.0793   90.2915   12.9499 N.am    1  UNL1       -0.2813
     12 H          64.8381   90.2678   12.3230 H       1  UNL1        0.1514
     13 C          66.6912   91.5578   13.7077 C.3     1  UNL1        0.1413
     14 C          67.2352   93.4869   10.3838 C.ar    1  UNL1        0.0875
     15 N          67.4588   92.2847   11.2526 N.ar    1  UNL1       -0.2453
     16 C          66.7358   92.5079   12.5478 C.ar    1  UNL1        0.0858
     17 C          66.0654   93.8480   12.4795 C.ar    1  UNL1        0.0530
     18 S          66.3740   94.4531   11.1421 S.2     1  UNL1       -0.0705
     19 C          68.6855   92.6590    8.3935 C.3     1  UNL1        0.0069
     20 C          67.7775   93.6876    8.9998 C.3     1  UNL1        0.0465
     21 C          67.4117   94.9170    8.2220 C.3     1  UNL1        0.0069
     22 C          61.5181   90.0333   13.3013 C.3     1  UNL1        0.1015
     23 N          60.1850   89.8734   12.6326 N.3     1  UNL1       -0.2685
     24 C          59.8127   90.7587   11.4805 C.3     1  UNL1        0.0897
     25 C          59.2240   88.8280   13.1161 C.3     1  UNL1        0.0897
     26 C          63.5028   85.5612   10.1768 C.3     1  UNL1        0.0216
     27 C          63.4966   84.0961    9.8550 C.3     1  UNL1        0.0217
     28 C          63.9375   83.0999   10.8862 C.3     1  UNL1        0.0792
     29 N          64.8605   83.5223   11.9906 N.am    1  UNL1       -0.2720
     30 C          64.3125   84.2187   13.2009 C.2     1  UNL1        0.4019
     31 O          62.8416   84.4926   13.3068 O.2     1  UNL1       -0.2264
     32 H          65.8260   83.3424   11.9211 H       1  UNL1        0.1527
     33 O          65.2355   84.6410   14.3053 O.3     1  UNL1       -0.4291
     34 C          65.1847   86.0456   14.8293 C.3     1  UNL1        0.2447
     35 C          64.1135   86.4456   15.8002 C.ar    1  UNL1        0.0714
     36 C          63.6112   87.8396   16.0339 C.ar    1  UNL1        0.1053
     37 N          62.5438   87.7774   17.0859 N.ar    1  UNL1       -0.2350
     38 C          62.3864   86.3450   17.5024 C.ar    1  UNL1        0.1343
     39 S          63.3565   85.5219   16.7078 S.2     1  UNL1       -0.0652
     40 C          63.4555   81.6814   10.8129 C.3     1  UNL1        0.0460
     41 C          62.7136   81.0806   11.9700 C.ar    1  UNL1       -0.0205
     42 C          62.7428   79.5973   12.1909 C.ar    1  UNL1       -0.0042
     43 C          62.0010   78.9966   13.3479 C.ar    1  UNL1       -0.0003
     44 C          61.2298   79.8793   14.2840 C.ar    1  UNL1       -0.0000
     45 C          61.2006   81.3626   14.0631 C.ar    1  UNL1       -0.0003
     46 C          61.9425   81.9633   12.9061 C.ar    1  UNL1       -0.0042
     47 C          60.9333   85.8969    9.9890 C.3     1  UNL1        0.0459
     48 C          60.3391   86.8266    8.9729 C.ar    1  UNL1       -0.0205
     49 C          60.3209   88.3045    9.2286 C.ar    1  UNL1       -0.0042
     50 C          59.7266   89.2342    8.2125 C.ar    1  UNL1       -0.0003
     51 C          59.1506   88.6860    6.9406 C.ar    1  UNL1       -0.0000
     52 C          59.1688   87.2081    6.6848 C.ar    1  UNL1       -0.0003
     53 C          59.7631   86.2783    7.7009 C.ar    1  UNL1       -0.0042
@<TRIPOS>BOND
     1    19    20    1
     2    20    21    1
     3    20    14    1
     4    14    15   ar
     5    15    16   ar
     6    16    13    1
     7    13     7    1
     8     7     8    1
     9     7     9   am
    10     9    10    2
    11     9    11   am
    12    11     6    1
    13     6    22    1
    14    22    23    1
    15    23    24    1
    16    23    25    1
    17     6     2    1
    18     2     3    2
    19     2     4   am
    20     4     1    1
    21     1    26    1
    22    26    27    1
    23    28    27    1
    24    28    40    1
    25    40    41    1
    26    41    42   ar
    27    42    43   ar
    28    43    44   ar
    29    44    45   ar
    30    45    46   ar
    31    28    29    1
    32    29    30   am
    33    30    31    2
    34    30    33    1
    35    33    34    1
    36    34    35    1
    37    35    36   ar
    38    36    37   ar
    39    37    38   ar
    40    38    39   ar
    41     1    47    1
    42    47    48    1
    43    48    49   ar
    44    49    50   ar
    45    50    51   ar
    46    51    52   ar
    47    52    53   ar
    48    16    17   ar
    49    17    18   ar
    50    18    14   ar
    51    46    41   ar
    52    39    35   ar
    53    53    48   ar
    54    11    12    1
    55     4     5    1
    56    29    32    1
@<TRIPOS>MOLECULE
*****
 53 56 0 0 0
SMALL
GASTEIGER

@<TRIPOS>ATOM
      1 C          63.5302   89.4245   13.0833 C.3     1  UNL1        0.0760
      2 C          61.6681   88.3695   11.6104 C.2     1  UNL1        0.2418
      3 O          60.7016   89.4141   12.0840 O.2     1  UNL1       -0.2733
      4 N          63.0825   88.3746   12.1100 N.am    1  UNL1       -0.3043
      5 H          63.7169   87.6890   11.7992 H       1  UNL1        0.1494
      6 C          61.2204   87.3196   10.6371 C.3     1  UNL1        0.1658
      7 N          63.1012   84.6254    8.4114 N.am    1  UNL1       -0.2567
      8 C          63.1016   84.1229    6.9980 C.3     1  UNL1        0.1168
      9 C          62.1610   85.7212    8.8175 C.2     1  UNL1        0.3046
     10 O          61.2211   86.3147    7.8104 O.2     1  UNL1       -0.2526
     11 N          62.1607   86.2236   10.2309 N.am    1  UNL1       -0.2813
     12 H          62.7776   85.8341   10.8919 H       1  UNL1        0.1514
     13 C          64.0411   84.0319    9.4185 C.3     1  UNL1        0.1413
     14 C          62.5700   82.1171   12.4575 C.ar    1  UNL1        0.0875
     15 N          62.9461   83.3978   11.7731 N.ar    1  UNL1       -0.2453
     16 C          63.5311   83.0541   10.4353 C.ar    1  UNL1        0.0858
     17 C          63.5165   81.5610   10.2928 C.ar    1  UNL1        0.0530
     18 S          62.9226   80.9818   11.5425 S.2     1  UNL1       -0.0705
     19 C          60.9807   80.8846   14.1022 C.3     1  UNL1        0.0069
     20 C          61.9502   81.9933   13.8178 C.3     1  UNL1        0.0465
     21 C          62.3000   82.9782   14.8937 C.3     1  UNL1        0.0069
     22 C          59.8325   87.3655   10.0700 C.3     1  UNL1        0.1015
     23 N          59.5495   88.1838    8.8451 N.3     1  UNL1       -0.2685
     24 C          60.1591   89.5461    8.6958 C.3     1  UNL1        0.0897
     25 C          58.6568   87.6396    7.7695 C.3     1  UNL1        0.0897
     26 C          63.0671   90.8422   12.9230 C.3     1  UNL1        0.0216
     27 C          63.9583   91.9741   13.3407 C.3     1  UNL1        0.0217
     28 C          65.2202   92.2552   12.5800 C.3     1  UNL1        0.0792
     29 N          65.2304   93.3005   11.5043 N.am    1  UNL1       -0.2720
     30 C          65.8181   94.6531   11.7784 C.2     1  UNL1        0.4019
     31 O          66.3956   94.9604   13.1282 O.2     1  UNL1       -0.2264
     32 H          64.8513   93.0988   10.6183 H       1  UNL1        0.1527
     33 O          65.8282   95.6984   10.7026 O.3     1  UNL1       -0.4291
     34 C          66.9963   95.8006    9.7671 C.3     1  UNL1        0.2447
     35 C          67.6801   94.5567    9.2824 C.ar    1  UNL1        0.0714
     36 C          67.8794   94.1615    7.8492 C.ar    1  UNL1        0.1053
     37 N          68.6071   92.8500    7.8269 N.ar    1  UNL1       -0.2350
     38 C          68.8576   92.4347    9.2463 C.ar    1  UNL1        0.1343
     39 S          68.2847   93.4894   10.1458 S.2     1  UNL1       -0.0652
     40 C          66.4719   91.4911   12.8951 C.3     1  UNL1        0.0460
     41 C          67.3361   91.9096   14.0476 C.ar    1  UNL1       -0.0205
     42 C          68.8039   92.1385   13.8400 C.ar    1  UNL1       -0.0042
     43 C          69.6680   92.5570   14.9924 C.ar    1  UNL1       -0.0003
     44 C          69.0643   92.7466   16.3524 C.ar    1  UNL1       -0.0000
     45 C          67.5965   92.5178   16.5600 C.ar    1  UNL1       -0.0003
     46 C          66.7324   92.0993   15.4076 C.ar    1  UNL1       -0.0042
     47 C          64.4411   89.0567   14.2170 C.3     1  UNL1        0.0459
     48 C          63.9780   88.0926   15.2686 C.ar    1  UNL1       -0.0205
     49 C          63.2206   88.5924   16.4630 C.ar    1  UNL1       -0.0042
     50 C          62.7575   87.6283   17.5147 C.ar    1  UNL1       -0.0003
     51 C          63.0517   86.1644   17.3720 C.ar    1  UNL1       -0.0000
     52 C          63.8091   85.6646   16.1776 C.ar    1  UNL1       -0.0003
     53 C          64.2722   86.6287   15.1259 C.ar    1  UNL1       -0.0042
@<TRIPOS>BOND
     1    19    20    1
     2    20    21    1
     3    20    14    1
     4    14    15   ar
     5    15    16   ar
     6    16    13    1
     7    13     7    1
     8     7     8    1
     9     7     9   am
    10     9    10    2
    11     9    11   am
    12    11     6    1
    13     6    22    1
    14    22    23    1
    15    23    24    1
    16    23    25    1
    17     6     2    1
    18     2     3    2
    19     2     4   am
    20     4     1    1
    21     1    26    1
    22    26    27    1
    23    28    27    1
    24    28    40    1
    25    40    41    1
    26    41    42   ar
    27    42    43   ar
    28    43    44   ar
    29    44    45   ar
    30    45    46   ar
    31    28    29    1
    32    29    30   am
    33    30    31    2
    34    30    33    1
    35    33    34    1
    36    34    35    1
    37    35    36   ar
    38    36    37   ar
    39    37    38   ar
    40    38    39   ar
    41     1    47    1
    42    47    48    1
    43    48    49   ar
    44    49    50   ar
    45    50    51   ar
    46    51    52   ar
    47    52    53   ar
    48    16    17   ar
    49    17    18   ar
    50    18    14   ar
    51    46    41   ar
    52    39    35   ar
    53    53    48   ar
    54    11    12    1
    55     4     5    1
    56    29    32    1
@<TRIPOS>MOLECULE
*****
 53 56 0 0 0
SMALL
GASTEIGER

@<TRIPOS>ATOM
      1 C          62.4445   86.5694   11.6940 C.3     1  UNL1        0.0760
      2 C          61.0901   88.7213   11.1600 C.2     1  UNL1        0.2418
      3 O          59.9864   88.2498   12.0597 O.2     1  UNL1       -0.2733
      4 N          62.3192   87.8810   10.9771 N.am    1  UNL1       -0.3043
      5 H          63.0436   88.1905   10.3866 H       1  UNL1        0.1494
      6 C          60.9648   90.0329   10.4431 C.3     1  UNL1        0.1658
      7 N          59.2698   88.9589    7.0191 N.am    1  UNL1       -0.2567
      8 C          59.0857   87.7278    6.1821 C.3     1  UNL1        0.1168
      9 C          60.0252   88.8804    8.3126 C.2     1  UNL1        0.3046
     10 O          60.5966   87.5707    8.7691 O.2     1  UNL1       -0.2526
     11 N          60.2093   90.1114    9.1495 N.am    1  UNL1       -0.2813
     12 H          59.8343   90.9710    8.8499 H       1  UNL1        0.1514
     13 C          58.6985   90.2686    6.5626 C.3     1  UNL1        0.1413
     14 C          60.9812   91.8059    3.8256 C.ar    1  UNL1        0.0875
     15 N          60.7674   90.8756    4.9826 N.ar    1  UNL1       -0.2453
     16 C          59.3431   91.0148    5.4322 C.ar    1  UNL1        0.0858
     17 C          58.6767   92.0311    4.5531 C.ar    1  UNL1        0.0530
     18 S          59.6891   92.5201    3.5601 S.2     1  UNL1       -0.0705
     19 C          62.4326   93.1705    2.1578 C.3     1  UNL1        0.0069
     20 C          62.2622   91.9898    3.0672 C.3     1  UNL1        0.0465
     21 C          63.3729   90.9930    3.2181 C.3     1  UNL1        0.0069
     22 C          61.5948   91.2660   11.0197 C.3     1  UNL1        0.1015
     23 N          63.0864   91.3546   11.1514 N.3     1  UNL1       -0.2685
     24 C          63.7449   91.0235   12.4578 C.3     1  UNL1        0.0897
     25 C          63.9194   91.7743    9.9768 C.3     1  UNL1        0.0897
     26 C          63.2166   86.4869   12.9773 C.3     1  UNL1        0.0216
     27 C          64.1456   87.5985   13.3665 C.3     1  UNL1        0.0217
     28 C          64.2737   87.9994   14.8063 C.3     1  UNL1        0.0792
     29 N          64.5229   89.4342   15.1659 N.am    1  UNL1       -0.2720
     30 C          63.4206   90.2612   15.7584 C.2     1  UNL1        0.4019
     31 O          62.0692   89.6535   15.9912 O.2     1  UNL1       -0.2264
     32 H          65.4100   89.8331   15.0130 H       1  UNL1        0.1527
     33 O          63.6699   91.6960   16.1180 O.3     1  UNL1       -0.4291
     34 C          64.9920   92.1056   16.6960 C.3     1  UNL1        0.2447
     35 C          66.1291   92.4654   15.7863 C.ar    1  UNL1        0.0714
     36 C          66.0117   92.8782   14.3490 C.ar    1  UNL1        0.1053
     37 N          67.3933   93.1436   13.8285 N.ar    1  UNL1       -0.2350
     38 C          68.3646   92.8948   14.9442 C.ar    1  UNL1        0.1343
     39 S          67.5833   92.4756   16.1541 S.2     1  UNL1       -0.0652
     40 C          64.1527   86.9656   15.8863 C.3     1  UNL1        0.0460
     41 C          63.9762   85.5205   15.5249 C.ar    1  UNL1       -0.0205
     42 C          65.0719   84.7870   14.8098 C.ar    1  UNL1       -0.0042
     43 C          64.8954   83.3420   14.4484 C.ar    1  UNL1       -0.0003
     44 C          63.6232   82.6304   14.8023 C.ar    1  UNL1       -0.0000
     45 C          62.5275   83.3638   15.5175 C.ar    1  UNL1       -0.0003
     46 C          62.7040   84.8089   15.8788 C.ar    1  UNL1       -0.0042
     47 C          61.7978   85.3403   11.1274 C.3     1  UNL1        0.0459
     48 C          62.5678   84.0553   11.0505 C.ar    1  UNL1       -0.0205
     49 C          63.7844   83.9610   10.1783 C.ar    1  UNL1       -0.0042
     50 C          64.5544   82.6760   10.1014 C.ar    1  UNL1       -0.0003
     51 C          64.1077   81.4853   10.8968 C.ar    1  UNL1       -0.0000
     52 C          62.8911   81.5795   11.7691 C.ar    1  UNL1       -0.0003
     53 C          62.1211   82.8645   11.8460 C.ar    1  UNL1       -0.0042
@<TRIPOS>BOND
     1    19    20    1
     2    20    21    1
     3    20    14    1
     4    14    15   ar
     5    15    16   ar
     6    16    13    1
     7    13     7    1
     8     7     8    1
     9     7     9   am
    10     9    10    2
    11     9    11   am
    12    11     6    1
    13     6    22    1
    14    22    23    1
    15    23    24    1
    16    23    25    1
    17     6     2    1
    18     2     3    2
    19     2     4   am
    20     4     1    1
    21     1    26    1
    22    26    27    1
    23    28    27    1
    24    28    40    1
    25    40    41    1
    26    41    42   ar
    27    42    43   ar
    28    43    44   ar
    29    44    45   ar
    30    45    46   ar
    31    28    29    1
    32    29    30   am
    33    30    31    2
    34    30    33    1
    35    33    34    1
    36    34    35    1
    37    35    36   ar
    38    36    37   ar
    39    37    38   ar
    40    38    39   ar
    41     1    47    1
    42    47    48    1
    43    48    49   ar
    44    49    50   ar
    45    50    51   ar
    46    51    52   ar
    47    52    53   ar
    48    16    17   ar
    49    17    18   ar
    50    18    14   ar
    51    46    41   ar
    52    39    35   ar
    53    53    48   ar
    54    11    12    1
    55     4     5    1
    56    29    32    1
@<TRIPOS>MOLECULE
*****
 53 56 0 0 0
SMALL
GASTEIGER

@<TRIPOS>ATOM
      1 C          62.3742   90.5090   11.5352 C.3     1  UNL1        0.0760
      2 C          63.2015   88.2166   12.4355 C.2     1  UNL1        0.2418
      3 O          63.1613   87.6559   11.0449 O.2     1  UNL1       -0.2733
      4 N          62.8079   89.6432   12.6807 N.am    1  UNL1       -0.3043
      5 H          62.8343   90.0112   13.5934 H       1  UNL1        0.1494
      6 C          63.6352   87.3508   13.5811 C.3     1  UNL1        0.1658
      7 N          63.6491   83.5140   14.5954 N.am    1  UNL1       -0.2567
      8 C          64.2032   82.6275   15.6711 C.3     1  UNL1        0.1168
      9 C          63.9192   84.9891   14.6261 C.2     1  UNL1        0.3046
     10 O          64.7435   85.5778   15.7325 O.2     1  UNL1       -0.2526
     11 N          63.3651   85.8756   13.5504 N.am    1  UNL1       -0.2813
     12 H          62.8242   85.4892   12.8243 H       1  UNL1        0.1514
     13 C          62.8249   82.9253   13.4890 C.3     1  UNL1        0.1413
     14 C          63.2287   84.1883    9.8411 C.ar    1  UNL1        0.0875
     15 N          62.5798   84.2686   11.1910 N.ar    1  UNL1       -0.2453
     16 C          63.1815   83.2031   12.0587 C.ar    1  UNL1        0.0858
     17 C          64.2023   82.4644   11.2450 C.ar    1  UNL1        0.0530
     18 S          64.2315   83.0732    9.8745 S.2     1  UNL1       -0.0705
     19 C          62.8844   86.5583    8.8337 C.3     1  UNL1        0.0069
     20 C          62.9278   85.0685    8.6644 C.3     1  UNL1        0.0465
     21 C          62.6702   84.4589    7.3182 C.3     1  UNL1        0.0069
     22 C          64.3390   87.9601   14.7572 C.3     1  UNL1        0.1015
     23 N          63.5527   88.6862   15.8081 N.3     1  UNL1       -0.2685
     24 C          63.4616   90.1830   15.7763 C.3     1  UNL1        0.0897
     25 C          62.8574   87.9154   16.8909 C.3     1  UNL1        0.0897
     26 C          63.3806   91.3510   10.8085 C.3     1  UNL1        0.0216
     27 C          64.1029   92.4484   11.5323 C.3     1  UNL1        0.0217
     28 C          65.5994   92.4223   11.6328 C.3     1  UNL1        0.0792
     29 N          66.4226   93.3733   10.8156 N.am    1  UNL1       -0.2720
     30 C          67.7271   92.9223   10.2282 C.2     1  UNL1        0.4019
     31 O          68.2083   91.5203   10.4580 O.2     1  UNL1       -0.2264
     32 H          66.1068   94.2935   10.6648 H       1  UNL1        0.1527
     33 O          68.5504   93.8733    9.4110 O.3     1  UNL1       -0.4291
     34 C          67.8838   94.9865    8.6584 C.3     1  UNL1        0.2447
     35 C          66.7306   95.7225    9.2736 C.ar    1  UNL1        0.0714
     36 C          66.6235   96.1546   10.7060 C.ar    1  UNL1        0.1053
     37 N          65.3086   96.8547   10.8820 N.ar    1  UNL1       -0.2350
     38 C          64.6030   96.8553    9.5583 C.ar    1  UNL1        0.1343
     39 S          65.4818   96.1556    8.5643 S.2     1  UNL1       -0.0652
     40 C          66.2725   91.4452   12.5504 C.3     1  UNL1        0.0460
     41 C          66.8971   91.9235   13.8276 C.ar    1  UNL1       -0.0205
     42 C          66.0291   92.3099   14.9883 C.ar    1  UNL1       -0.0042
     43 C          66.6537   92.7882   16.2654 C.ar    1  UNL1       -0.0003
     44 C          68.1464   92.8802   16.3818 C.ar    1  UNL1       -0.0000
     45 C          69.0144   92.4939   15.2211 C.ar    1  UNL1       -0.0003
     46 C          68.3898   92.0155   13.9440 C.ar    1  UNL1       -0.0042
     47 C          60.9340   90.5328   11.1164 C.3     1  UNL1        0.0459
     48 C          60.4169   89.5084   10.1503 C.ar    1  UNL1       -0.0205
     49 C          60.2689   89.8542    8.6983 C.ar    1  UNL1       -0.0042
     50 C          59.7518   88.8298    7.7322 C.ar    1  UNL1       -0.0003
     51 C          59.3826   87.4596    8.2182 C.ar    1  UNL1       -0.0000
     52 C          59.5306   87.1138    9.6703 C.ar    1  UNL1       -0.0003
     53 C          60.0477   88.1381   10.6364 C.ar    1  UNL1       -0.0042
@<TRIPOS>BOND
     1    19    20    1
     2    20    21    1
     3    20    14    1
     4    14    15   ar
     5    15    16   ar
     6    16    13    1
     7    13     7    1
     8     7     8    1
     9     7     9   am
    10     9    10    2
    11     9    11   am
    12    11     6    1
    13     6    22    1
    14    22    23    1
    15    23    24    1
    16    23    25    1
    17     6     2    1
    18     2     3    2
    19     2     4   am
    20     4     1    1
    21     1    26    1
    22    26    27    1
    23    28    27    1
    24    28    40    1
    25    40    41    1
    26    41    42   ar
    27    42    43   ar
    28    43    44   ar
    29    44    45   ar
    30    45    46   ar
    31    28    29    1
    32    29    30   am
    33    30    31    2
    34    30    33    1
    35    33    34    1
    36    34    35    1
    37    35    36   ar
    38    36    37   ar
    39    37    38   ar
    40    38    39   ar
    41     1    47    1
    42    47    48    1
    43    48    49   ar
    44    49    50   ar
    45    50    51   ar
    46    51    52   ar
    47    52    53   ar
    48    16    17   ar
    49    17    18   ar
    50    18    14   ar
    51    46    41   ar
    52    39    35   ar
    53    53    48   ar
    54    11    12    1
    55     4     5    1
    56    29    32    1
@<TRIPOS>MOLECULE
*****
 53 56 0 0 0
SMALL
GASTEIGER

@<TRIPOS>ATOM
      1 C          60.6123   89.1148    8.8172 C.3     1  UNL1        0.0760
      2 C          61.3375   86.8698    9.9055 C.2     1  UNL1        0.2418
      3 O          60.3348   87.0773   11.0016 O.2     1  UNL1       -0.2733
      4 N          61.4762   87.8886    8.8132 N.am    1  UNL1       -0.3043
      5 H          62.1343   87.7524    8.0938 H       1  UNL1        0.1494
      6 C          62.2014   85.6436    9.9015 C.3     1  UNL1        0.1658
      7 N          63.4071   82.8152   12.4108 N.am    1  UNL1       -0.2567
      8 C          64.2802   81.5955   12.4099 C.3     1  UNL1        0.1168
      9 C          63.2408   83.6196   11.1557 C.2     1  UNL1        0.3046
     10 O          63.9477   83.2042    9.8996 O.2     1  UNL1       -0.2526
     11 N          62.3677   84.8392   11.1567 N.am    1  UNL1       -0.2813
     12 H          61.9037   85.1118   11.9811 H       1  UNL1        0.1514
     13 C          62.7001   83.2306   13.6669 C.3     1  UNL1        0.1413
     14 C          63.3524   86.1917   16.0901 C.ar    1  UNL1        0.0875
     15 N          62.4854   85.0745   15.5902 N.ar    1  UNL1       -0.2453
     16 C          63.2042   84.4001   14.4595 C.ar    1  UNL1        0.0858
     17 C          64.5156   85.1005   14.2606 C.ar    1  UNL1        0.0530
     18 S          64.6073   86.2078   15.2684 S.2     1  UNL1       -0.0705
     19 C          63.0458   88.6108   16.9867 C.3     1  UNL1        0.0069
     20 C          63.0227   87.1284   17.2144 C.3     1  UNL1        0.0465
     21 C          62.6698   86.5826   18.5662 C.3     1  UNL1        0.0069
     22 C          62.8991   85.2218    8.6424 C.3     1  UNL1        0.1015
     23 N          62.1112   85.0080    7.3840 N.3     1  UNL1       -0.2685
     24 C          62.7956   84.5076    6.1466 C.3     1  UNL1        0.0897
     25 C          60.6390   85.2945    7.3630 C.3     1  UNL1        0.0897
     26 C          60.9843   90.2916    9.6697 C.3     1  UNL1        0.0216
     27 C          61.8107   90.0912   10.9053 C.3     1  UNL1        0.0217
     28 C          62.9703   90.9999   11.1876 C.3     1  UNL1        0.0792
     29 N          63.4637   91.1715   12.5937 N.am    1  UNL1       -0.2720
     30 C          63.8760   89.9726   13.3955 C.2     1  UNL1        0.4019
     31 O          63.7949   88.6022   12.7911 O.2     1  UNL1       -0.2264
     32 H          63.5169   92.0710   12.9904 H       1  UNL1        0.1527
     33 O          64.3693   90.1442   14.8016 O.3     1  UNL1       -0.4291
     34 C          64.8195   91.4930   15.2791 C.3     1  UNL1        0.2447
     35 C          66.2326   91.9383   15.0450 C.ar    1  UNL1        0.0714
     36 C          67.0252   91.7325   13.7882 C.ar    1  UNL1        0.1053
     37 N          68.3837   92.3345   13.9930 N.ar    1  UNL1       -0.2350
     38 C          68.4308   92.9124   15.3764 C.ar    1  UNL1        0.1343
     39 S          67.1014   92.6675   16.0266 S.2     1  UNL1       -0.0652
     40 C          63.6366   91.7369   10.0638 C.3     1  UNL1        0.0460
     41 C          64.9281   92.4612   10.3034 C.ar    1  UNL1       -0.0205
     42 C          64.9132   93.8788   10.7934 C.ar    1  UNL1       -0.0042
     43 C          66.2047   94.6031   11.0330 C.ar    1  UNL1       -0.0003
     44 C          67.5111   93.9098   10.7826 C.ar    1  UNL1       -0.0000
     45 C          67.5259   92.4922   10.2926 C.ar    1  UNL1       -0.0003
     46 C          66.2345   91.7679   10.0531 C.ar    1  UNL1       -0.0042
     47 C          59.3763   89.1642    7.9687 C.3     1  UNL1        0.0459
     48 C          59.3506   90.0089    6.7294 C.ar    1  UNL1       -0.0205
     49 C          58.0444   90.5169    6.1950 C.ar    1  UNL1       -0.0042
     50 C          58.0187   91.3616    4.9557 C.ar    1  UNL1       -0.0003
     51 C          59.2992   91.6983    4.2509 C.ar    1  UNL1       -0.0000
     52 C          60.6055   91.1903    4.7853 C.ar    1  UNL1       -0.0003
     53 C          60.6312   90.3456    6.0246 C.ar    1  UNL1       -0.0042
@<TRIPOS>BOND
     1    19    20    1
     2    20    21    1
     3    20    14    1
     4    14    15   ar
     5    15    16   ar
     6    16    13    1
     7    13     7    1
     8     7     8    1
     9     7     9   am
    10     9    10    2
    11     9    11   am
    12    11     6    1
    13     6    22    1
    14    22    23    1
    15    23    24    1
    16    23    25    1
    17     6     2    1
    18     2     3    2
    19     2     4   am
    20     4     1    1
    21     1    26    1
    22    26    27    1
    23    28    27    1
    24    28    40    1
    25    40    41    1
    26    41    42   ar
    27    42    43   ar
    28    43    44   ar
    29    44    45   ar
    30    45    46   ar
    31    28    29    1
    32    29    30   am
    33    30    31    2
    34    30    33    1
    35    33    34    1
    36    34    35    1
    37    35    36   ar
    38    36    37   ar
    39    37    38   ar
    40    38    39   ar
    41     1    47    1
    42    47    48    1
    43    48    49   ar
    44    49    50   ar
    45    50    51   ar
    46    51    52   ar
    47    52    53   ar
    48    16    17   ar
    49    17    18   ar
    50    18    14   ar
    51    46    41   ar
    52    39    35   ar
    53    53    48   ar
    54    11    12    1
    55     4     5    1
    56    29    32    1
@<TRIPOS>MOLECULE
*****
 53 56 0 0 0
SMALL
GASTEIGER

@<TRIPOS>ATOM
      1 C          61.4016   88.9716   11.5089 C.3     1  UNL1        0.0760
      2 C          62.3843   86.8931   10.2988 C.2     1  UNL1        0.2418
      3 O          62.7572   87.7517    9.1267 O.2     1  UNL1       -0.2733
      4 N          61.7065   87.5030   11.4899 N.am    1  UNL1       -0.3043
      5 H          61.4618   86.9395   12.2591 H       1  UNL1        0.1494
      6 C          62.6892   85.4245   10.2798 C.3     1  UNL1        0.1658
      7 N          62.8913   82.3870   12.8259 N.am    1  UNL1       -0.2567
      8 C          63.4051   80.9785   12.8722 C.3     1  UNL1        0.1168
      9 C          63.0471   83.2015   11.5760 C.2     1  UNL1        0.3046
     10 O          63.7168   82.6075   10.3724 O.2     1  UNL1       -0.2526
     11 N          62.5333   84.6100   11.5297 N.am    1  UNL1       -0.2813
     12 H          62.0938   84.9998   12.3197 H       1  UNL1        0.1514
     13 C          62.2216   82.9810   14.0295 C.3     1  UNL1        0.1413
     14 C          63.2147   86.0173   16.2343 C.ar    1  UNL1        0.0875
     15 N          62.1968   85.0289   15.7473 N.ar    1  UNL1       -0.2453
     16 C          62.8691   84.1178   14.7634 C.ar    1  UNL1        0.0858
     17 C          64.3024   84.5430   14.6423 C.ar    1  UNL1        0.0530
     18 S          64.5160   85.7169   15.5513 S.2     1  UNL1       -0.0705
     19 C          63.0472   88.5480   16.7975 C.3     1  UNL1        0.0069
     20 C          62.9735   87.1134   17.2294 C.3     1  UNL1        0.0465
     21 C          62.6587   86.7750   18.6564 C.3     1  UNL1        0.0069
     22 C          63.1499   84.7705    9.0110 C.3     1  UNL1        0.1015
     23 N          62.3292   84.8959    7.7617 N.3     1  UNL1       -0.2685
     24 C          60.8740   85.2481    7.8525 C.3     1  UNL1        0.0897
     25 C          62.9637   84.6690    6.4216 C.3     1  UNL1        0.0897
     26 C          62.3618   89.9287   12.1506 C.3     1  UNL1        0.0216
     27 C          63.1038   90.9240   11.3089 C.3     1  UNL1        0.0217
     28 C          64.3702   91.5436   11.8213 C.3     1  UNL1        0.0792
     29 N          64.4324   92.0726   13.2235 N.am    1  UNL1       -0.2720
     30 C          64.7088   91.1399   14.3654 C.2     1  UNL1        0.4019
     31 O          64.9230   89.6783   14.1050 O.2     1  UNL1       -0.2264
     32 H          64.2918   93.0319   13.3945 H       1  UNL1        0.1527
     33 O          64.7710   91.6689   15.7677 O.3     1  UNL1       -0.4291
     34 C          65.7783   92.7200   16.1288 C.3     1  UNL1        0.2447
     35 C          67.1480   92.6874   15.5181 C.ar    1  UNL1        0.0714
     36 C          67.5028   92.1129   14.1787 C.ar    1  UNL1        0.1053
     37 N          68.9775   92.2940   13.9725 N.ar    1  UNL1       -0.2350
     38 C          69.5341   92.9804   15.1845 C.ar    1  UNL1        0.1343
     39 S          68.4034   93.2235   16.1398 S.2     1  UNL1       -0.0652
     40 C          65.5744   91.6341   10.9314 C.3     1  UNL1        0.0460
     41 C          66.0960   92.9758   10.5096 C.ar    1  UNL1       -0.0205
     42 C          65.3293   94.2194   10.8495 C.ar    1  UNL1       -0.0042
     43 C          65.8510   95.5609   10.4276 C.ar    1  UNL1       -0.0003
     44 C          67.1394   95.6589    9.6658 C.ar    1  UNL1       -0.0000
     45 C          67.9062   94.4153    9.3259 C.ar    1  UNL1       -0.0003
     46 C          67.3845   93.0738    9.7478 C.ar    1  UNL1       -0.0042
     47 C          60.1365   89.4830   10.8860 C.3     1  UNL1        0.0459
     48 C          59.7806   89.0927    9.4821 C.ar    1  UNL1       -0.0205
     49 C          60.1313   89.9993    8.3398 C.ar    1  UNL1       -0.0042
     50 C          59.7754   89.6089    6.9359 C.ar    1  UNL1       -0.0003
     51 C          59.0689   88.3119    6.6743 C.ar    1  UNL1       -0.0000
     52 C          58.7181   87.4052    7.8166 C.ar    1  UNL1       -0.0003
     53 C          59.0740   87.7956    9.2205 C.ar    1  UNL1       -0.0042
@<TRIPOS>BOND
     1    19    20    1
     2    20    21    1
     3    20    14    1
     4    14    15   ar
     5    15    16   ar
     6    16    13    1
     7    13     7    1
     8     7     8    1
     9     7     9   am
    10     9    10    2
    11     9    11   am
    12    11     6    1
    13     6    22    1
    14    22    23    1
    15    23    24    1
    16    23    25    1
    17     6     2    1
    18     2     3    2
    19     2     4   am
    20     4     1    1
    21     1    26    1
    22    26    27    1
    23    28    27    1
    24    28    40    1
    25    40    41    1
    26    41    42   ar
    27    42    43   ar
    28    43    44   ar
    29    44    45   ar
    30    45    46   ar
    31    28    29    1
    32    29    30   am
    33    30    31    2
    34    30    33    1
    35    33    34    1
    36    34    35    1
    37    35    36   ar
    38    36    37   ar
    39    37    38   ar
    40    38    39   ar
    41     1    47    1
    42    47    48    1
    43    48    49   ar
    44    49    50   ar
    45    50    51   ar
    46    51    52   ar
    47    52    53   ar
    48    16    17   ar
    49    17    18   ar
    50    18    14   ar
    51    46    41   ar
    52    39    35   ar
    53    53    48   ar
    54    11    12    1
    55     4     5    1
    56    29    32    1
