@<TRIPOS>MOLECULE
*****
 44 47 0 0 0
SMALL
GASTEIGER

@<TRIPOS>ATOM
      1 N          64.2125   90.9932   12.6911 N.pl3   1  UNL1       -0.3043
      2 C          63.2246   91.6623   11.7821 C.3     1  UNL1        0.1123
      3 C          62.3021   90.8343   10.9375 C.3     1  UNL1        0.1149
      4 N          62.3675   89.3371   11.0019 N.am    1  UNL1       -0.2747
      5 C          61.4450   88.5091   10.1573 C.2     1  UNL1        0.2442
      6 O          60.4571   89.1782    9.2484 O.2     1  UNL1       -0.2731
      7 C          63.3554   88.6679   11.9109 C.3     1  UNL1        0.1149
      8 C          64.2780   89.4960   12.7555 C.3     1  UNL1        0.1123
      9 C          65.9609   92.9030   12.9050 C.ar    1  UNL1        0.0111
     10 C          66.8834   93.7310   13.7496 C.ar    1  UNL1        0.0282
     11 C          66.9800   93.4773   15.2248 C.ar    1  UNL1        0.1400
     12 F          67.9026   94.3054   16.0694 F       1  UNL1       -0.2042
     13 C          66.1542   92.3956   15.8555 C.ar    1  UNL1        0.0309
     14 C          65.2317   91.5676   15.0109 C.ar    1  UNL1        0.0166
     15 C          65.1351   91.8213   13.5356 C.ar    1  UNL1        0.0456
     16 C          65.8643   93.1567   11.4298 C.3     1  UNL1        0.0953
     17 C          65.8475   95.5543   10.4292 C.2     1  UNL1        0.2388
     18 O          67.3473   95.5715   10.4450 O.2     1  UNL1       -0.2736
     19 N          65.1060   94.3470   10.9216 N.am    1  UNL1       -0.3010
     20 H          64.1216   94.3357   10.9112 H       1  UNL1        0.1497
     21 C          65.0892   96.7446    9.9209 C.3     1  UNL1        0.1549
     22 C          65.7846   96.8195    7.4188 C.3     1  UNL1        0.0862
     23 N          64.7155   96.8325    8.4709 N.3     1  UNL1       -0.2887
     24 H          64.1015   96.0416    8.2766 H       1  UNL1        0.1237
     25 C          66.5259   92.2202   10.4628 C.3     1  UNL1        0.0242
     26 C          68.0196   92.0824   10.4549 C.3     1  UNL1        0.0020
     27 C          68.8001   92.4480    9.2273 C.3     1  UNL1        0.0001
     28 C          68.7328   91.5789   11.6747 C.3     1  UNL1        0.0001
     29 C          61.5104   87.0119   10.2217 C.3     1  UNL1        0.1564
     30 N          61.6493   86.2123    8.9602 N.am    1  UNL1       -0.2727
     31 C          62.8988   85.5376    8.4771 C.3     1  UNL1        0.0943
     32 C          62.5848   84.8553    7.1786 C.3     1  UNL1        0.0311
     33 C          61.1412   85.1083    6.8593 C.3     1  UNL1        0.0870
     34 C          60.5629   85.9470    7.9604 C.2     1  UNL1        0.2260
     35 O          59.1471   86.4348    8.0465 O.2     1  UNL1       -0.2749
     36 C          61.4370   86.3143   11.5477 C.3     1  UNL1        0.0564
     37 C          62.2911   85.1093   11.8094 C.ar    1  UNL1       -0.0094
     38 C          62.1350   83.8811   10.9625 C.ar    1  UNL1       -0.0025
     39 C          62.9891   82.6761   11.2242 C.ar    1  UNL1        0.0111
     40 C          63.9992   82.6993   12.3329 C.ar    1  UNL1        0.0585
     41 CL         64.8533   81.4943   12.5947 Cl      1  UNL1       -0.0822
     42 C          64.1553   83.9275   13.1798 C.ar    1  UNL1        0.0225
     43 C          63.3012   85.1325   12.9180 C.ar    1  UNL1        0.0546
     44 CL         63.4572   86.3606   13.7649 Cl      1  UNL1       -0.0825
@<TRIPOS>BOND
     1    22    23    1
     2    23    21    1
     3    21    17    1
     4    17    18    2
     5    17    19   am
     6    19    16    1
     7    16    25    1
     8    25    26    1
     9    26    27    1
    10    26    28    1
    11    16     9    1
    12     9    10   ar
    13    10    11   ar
    14    11    12    1
    15    11    13   ar
    16    13    14   ar
    17    14    15   ar
    18    15     1    1
    19     1     2    1
    20     2     3    1
    21     3     4    1
    22     4     5   am
    23     5     6    2
    24     5    29    1
    25    29    36    1
    26    36    37    1
    27    37    38   ar
    28    38    39   ar
    29    39    40   ar
    30    40    41    1
    31    40    42   ar
    32    42    43   ar
    33    43    44    1
    34    29    30    1
    35    30    31    1
    36    31    32    1
    37    32    33    1
    38    33    34    1
    39    34    35    2
    40     4     7    1
    41     7     8    1
    42    15     9   ar
    43     8     1    1
    44    43    37   ar
    45    34    30   am
    46    23    24    1
    47    19    20    1
@<TRIPOS>MOLECULE
*****
 44 47 0 0 0
SMALL
GASTEIGER

@<TRIPOS>ATOM
      1 N          62.0608   89.3761   10.9556 N.pl3   1  UNL1       -0.3043
      2 C          61.6221   89.6693   12.3597 C.3     1  UNL1        0.1123
      3 C          62.5354   90.4089   13.2918 C.3     1  UNL1        0.1149
      4 N          63.8875   90.8553   12.8198 N.am    1  UNL1       -0.2747
      5 C          64.8007   91.5948   13.7520 C.2     1  UNL1        0.2442
      6 O          64.3620   91.8881   15.1561 O.2     1  UNL1       -0.2731
      7 C          64.3262   90.5621   11.4157 C.3     1  UNL1        0.1149
      8 C          63.4128   89.8225   10.4836 C.3     1  UNL1        0.1123
      9 C          61.1556   87.1368    9.9985 C.ar    1  UNL1        0.0111
     10 C          60.2422   86.3973    9.0664 C.ar    1  UNL1        0.0282
     11 C          59.3207   87.1575    8.1592 C.ar    1  UNL1        0.1400
     12 F          58.4073   86.4179    7.2271 F       1  UNL1       -0.2042
     13 C          59.3125   88.6572    8.1842 C.ar    1  UNL1        0.0309
     14 C          60.2259   89.3967    9.1163 C.ar    1  UNL1        0.0166
     15 C          61.1474   88.6365   10.0234 C.ar    1  UNL1        0.0456
     16 C          62.0771   86.3766   10.9056 C.3     1  UNL1        0.0953
     17 C          63.2955   86.3968   13.2001 C.2     1  UNL1        0.2388
     18 O          62.9204   84.9601   13.4121 O.2     1  UNL1       -0.2736
     19 N          62.8739   87.1051   11.9469 N.am    1  UNL1       -0.3010
     20 H          63.1201   88.0481   11.8078 H       1  UNL1        0.1497
     21 C          64.0923   87.1254   14.2415 C.3     1  UNL1        0.1549
     22 C          63.4845   88.6221   16.2763 C.3     1  UNL1        0.0862
     23 N          63.5536   87.2683   15.6341 N.3     1  UNL1       -0.2887
     24 H          62.6027   86.8996   15.6212 H       1  UNL1        0.1237
     25 C          62.2018   84.8878   10.7714 C.3     1  UNL1        0.0242
     26 C          63.2271   84.3014    9.8468 C.3     1  UNL1        0.0020
     27 C          63.3376   84.7998    8.4364 C.3     1  UNL1        0.0001
     28 C          64.1419   83.2164   10.3327 C.3     1  UNL1        0.0001
     29 C          66.1527   92.0412   13.2800 C.3     1  UNL1        0.1564
     30 N          67.1382   92.6102   14.2573 N.am    1  UNL1       -0.2727
     31 C          66.8036   93.3958   15.4905 C.3     1  UNL1        0.0943
     32 C          68.0899   93.7646   16.1684 C.3     1  UNL1        0.0311
     33 C          69.2194   93.2070   15.3541 C.3     1  UNL1        0.0870
     34 C          68.6313   92.4935   14.1729 C.2     1  UNL1        0.2260
     35 O          69.4011   91.7874   13.0965 O.2     1  UNL1       -0.2749
     36 C          66.5194   91.9185   11.8306 C.3     1  UNL1        0.0564
     37 C          66.7189   93.1519   11.0005 C.ar    1  UNL1       -0.0094
     38 C          66.0340   94.4310   11.3811 C.ar    1  UNL1       -0.0025
     39 C          66.2336   95.6643   10.5510 C.ar    1  UNL1        0.0111
     40 C          67.1181   95.6185    9.3403 C.ar    1  UNL1        0.0585
     41 CL         67.3177   96.8519    8.5102 Cl      1  UNL1       -0.0822
     42 C          67.8030   94.3394    8.9598 C.ar    1  UNL1        0.0225
     43 C          67.6034   93.1061    9.7899 C.ar    1  UNL1        0.0546
     44 CL         68.2883   91.8270    9.4094 Cl      1  UNL1       -0.0825
@<TRIPOS>BOND
     1    22    23    1
     2    23    21    1
     3    21    17    1
     4    17    18    2
     5    17    19   am
     6    19    16    1
     7    16    25    1
     8    25    26    1
     9    26    27    1
    10    26    28    1
    11    16     9    1
    12     9    10   ar
    13    10    11   ar
    14    11    12    1
    15    11    13   ar
    16    13    14   ar
    17    14    15   ar
    18    15     1    1
    19     1     2    1
    20     2     3    1
    21     3     4    1
    22     4     5   am
    23     5     6    2
    24     5    29    1
    25    29    36    1
    26    36    37    1
    27    37    38   ar
    28    38    39   ar
    29    39    40   ar
    30    40    41    1
    31    40    42   ar
    32    42    43   ar
    33    43    44    1
    34    29    30    1
    35    30    31    1
    36    31    32    1
    37    32    33    1
    38    33    34    1
    39    34    35    2
    40     4     7    1
    41     7     8    1
    42    15     9   ar
    43     8     1    1
    44    43    37   ar
    45    34    30   am
    46    23    24    1
    47    19    20    1
@<TRIPOS>MOLECULE
*****
 44 47 0 0 0
SMALL
GASTEIGER

@<TRIPOS>ATOM
      1 N          61.5786   86.2316    9.4485 N.pl3   1  UNL1       -0.3043
      2 C          62.7480   85.5775    8.7741 C.3     1  UNL1        0.1123
      3 C          63.5948   84.5949    9.5274 C.3     1  UNL1        0.1149
      4 N          63.2723   84.2664   10.9550 N.am    1  UNL1       -0.2747
      5 C          64.1191   83.2838   11.7083 C.2     1  UNL1        0.2442
      6 O          65.2885   82.6298   11.0339 O.2     1  UNL1       -0.2731
      7 C          62.1029   84.9205   11.6294 C.3     1  UNL1        0.1149
      8 C          61.2561   85.9031   10.8761 C.3     1  UNL1        0.1123
      9 C          60.6994   88.6536    9.1157 C.ar    1  UNL1        0.0111
     10 C          59.8526   89.6362    8.3624 C.ar    1  UNL1        0.0282
     11 C          59.0381   89.1792    7.1886 C.ar    1  UNL1        0.1400
     12 F          58.1913   90.1618    6.4352 F       1  UNL1       -0.2042
     13 C          59.0704   87.7398    6.7681 C.ar    1  UNL1        0.0309
     14 C          59.9173   86.7572    7.5214 C.ar    1  UNL1        0.0166
     15 C          60.7318   87.2142    8.6952 C.ar    1  UNL1        0.0456
     16 C          61.5139   89.1106   10.2895 C.3     1  UNL1        0.0953
     17 C          59.8778   89.6513   12.2339 C.2     1  UNL1        0.2388
     18 O          59.2175   90.6986   11.3871 O.2     1  UNL1       -0.2736
     19 N          61.0260   88.8573   11.6851 N.am    1  UNL1       -0.3010
     20 H          61.4594   88.1698   12.2408 H       1  UNL1        0.1497
     21 C          59.3899   89.3979   13.6296 C.3     1  UNL1        0.1549
     22 C          57.0347   88.4379   13.0992 C.3     1  UNL1        0.0862
     23 N          58.3168   88.3791   13.8755 N.3     1  UNL1       -0.2887
     24 H          58.7308   87.4652   13.6916 H       1  UNL1        0.1237
     25 C          62.8163   89.8208   10.0677 C.3     1  UNL1        0.0242
     26 C          63.3946   90.6826   11.1508 C.3     1  UNL1        0.0020
     27 C          64.0523   91.9849   10.8023 C.3     1  UNL1        0.0001
     28 C          63.3153   90.2419   12.5824 C.3     1  UNL1        0.0001
     29 C          63.7966   82.9554   13.1358 C.3     1  UNL1        0.1564
     30 N          62.6623   82.0268   13.4540 N.am    1  UNL1       -0.2727
     31 C          61.6169   82.2406   14.5081 C.3     1  UNL1        0.0943
     32 C          60.6828   81.0673   14.4795 C.3     1  UNL1        0.0311
     33 C          61.1510   80.1282   13.4075 C.3     1  UNL1        0.0870
     34 C          62.3744   80.7212   12.7737 C.2     1  UNL1        0.2260
     35 O          63.1701   80.1151   11.6560 O.2     1  UNL1       -0.2749
     36 C          64.6083   83.5555   14.2454 C.3     1  UNL1        0.0564
     37 C          64.2545   84.9093   14.7859 C.ar    1  UNL1       -0.0094
     38 C          64.7631   86.1452   14.1047 C.ar    1  UNL1       -0.0025
     39 C          64.4093   87.4990   14.6452 C.ar    1  UNL1        0.0111
     40 C          63.5469   87.6168   15.8669 C.ar    1  UNL1        0.0585
     41 CL         63.1931   88.9706   16.4074 Cl      1  UNL1       -0.0822
     42 C          63.0383   86.3810   16.5480 C.ar    1  UNL1        0.0225
     43 C          63.3921   85.0272   16.0075 C.ar    1  UNL1        0.0546
     44 CL         62.8836   83.7914   16.6886 Cl      1  UNL1       -0.0825
@<TRIPOS>BOND
     1    22    23    1
     2    23    21    1
     3    21    17    1
     4    17    18    2
     5    17    19   am
     6    19    16    1
     7    16    25    1
     8    25    26    1
     9    26    27    1
    10    26    28    1
    11    16     9    1
    12     9    10   ar
    13    10    11   ar
    14    11    12    1
    15    11    13   ar
    16    13    14   ar
    17    14    15   ar
    18    15     1    1
    19     1     2    1
    20     2     3    1
    21     3     4    1
    22     4     5   am
    23     5     6    2
    24     5    29    1
    25    29    36    1
    26    36    37    1
    27    37    38   ar
    28    38    39   ar
    29    39    40   ar
    30    40    41    1
    31    40    42   ar
    32    42    43   ar
    33    43    44    1
    34    29    30    1
    35    30    31    1
    36    31    32    1
    37    32    33    1
    38    33    34    1
    39    34    35    2
    40     4     7    1
    41     7     8    1
    42    15     9   ar
    43     8     1    1
    44    43    37   ar
    45    34    30   am
    46    23    24    1
    47    19    20    1
@<TRIPOS>MOLECULE
*****
 44 47 0 0 0
SMALL
GASTEIGER

@<TRIPOS>ATOM
      1 N          61.5447   86.3762    9.4503 N.pl3   1  UNL1       -0.3043
      2 C          62.7191   85.7282    8.7789 C.3     1  UNL1        0.1123
      3 C          63.5769   84.7599    9.5382 C.3     1  UNL1        0.1149
      4 N          63.2603   84.4396   10.9690 N.am    1  UNL1       -0.2747
      5 C          64.1180   83.4713   11.7283 C.2     1  UNL1        0.2442
      6 O          65.2924   82.8233   11.0568 O.2     1  UNL1       -0.2731
      7 C          62.0859   85.0876   11.6405 C.3     1  UNL1        0.1149
      8 C          61.2281   86.0559   10.8811 C.3     1  UNL1        0.1123
      9 C          60.6532   88.7899    9.0907 C.ar    1  UNL1        0.0111
     10 C          59.7954   89.7582    8.3313 C.ar    1  UNL1        0.0282
     11 C          58.9714   89.2811    7.1722 C.ar    1  UNL1        0.1400
     12 F          58.1137   90.2495    6.4128 F       1  UNL1       -0.2042
     13 C          59.0052   87.8358    6.7725 C.ar    1  UNL1        0.0309
     14 C          59.8630   86.8675    7.5319 C.ar    1  UNL1        0.0166
     15 C          60.6869   87.3446    8.6909 C.ar    1  UNL1        0.0456
     16 C          61.4771   89.2670   10.2497 C.3     1  UNL1        0.0953
     17 C          63.3461   90.9133   10.9891 C.2     1  UNL1        0.2388
     18 O          62.5529   91.2642   12.2129 O.2     1  UNL1       -0.2736
     19 N          62.8082   89.9147   10.0075 N.am    1  UNL1       -0.3010
     20 H          63.3288   89.6844    9.2043 H       1  UNL1        0.1497
     21 C          64.6772   91.5610   10.7468 C.3     1  UNL1        0.1549
     22 C          65.9498   93.8253   10.6863 C.3     1  UNL1        0.0862
     23 N          64.7464   93.0017   10.3350 N.3     1  UNL1       -0.2887
     24 H          64.6624   93.0218    9.3186 H       1  UNL1        0.1237
     25 C          60.9701   89.0964   11.6510 C.3     1  UNL1        0.0242
     26 C          59.6080   89.6031   12.0227 C.3     1  UNL1        0.0020
     27 C          59.1684   90.9669   11.5794 C.3     1  UNL1        0.0001
     28 C          58.6855   88.7458   12.8377 C.3     1  UNL1        0.0001
     29 C          63.8014   83.1510   13.1590 C.3     1  UNL1        0.1564
     30 N          62.6792   82.2110   13.4866 N.am    1  UNL1       -0.2727
     31 C          61.6431   82.4124   14.5523 C.3     1  UNL1        0.0943
     32 C          60.7197   81.2305   14.5303 C.3     1  UNL1        0.0311
     33 C          61.1851   80.2987   13.4509 C.3     1  UNL1        0.0870
     34 C          62.3962   80.9046   12.8058 C.2     1  UNL1        0.2260
     35 O          63.1857   80.3089   11.6781 O.2     1  UNL1       -0.2749
     36 C          64.6069   83.7706   14.2624 C.3     1  UNL1        0.0564
     37 C          64.2335   85.1220   14.7956 C.ar    1  UNL1       -0.0094
     38 C          64.6859   86.3612   14.0816 C.ar    1  UNL1       -0.0025
     39 C          64.3125   87.7126   14.6149 C.ar    1  UNL1        0.0111
     40 C          63.4867   87.8247   15.8622 C.ar    1  UNL1        0.0585
     41 CL         63.1134   89.1761   16.3955 Cl      1  UNL1       -0.0822
     42 C          63.0345   86.5855   16.5762 C.ar    1  UNL1        0.0225
     43 C          63.4078   85.2341   16.0429 C.ar    1  UNL1        0.0546
     44 CL         62.9555   83.9949   16.7568 Cl      1  UNL1       -0.0825
@<TRIPOS>BOND
     1    22    23    1
     2    23    21    1
     3    21    17    1
     4    17    18    2
     5    17    19   am
     6    19    16    1
     7    16    25    1
     8    25    26    1
     9    26    27    1
    10    26    28    1
    11    16     9    1
    12     9    10   ar
    13    10    11   ar
    14    11    12    1
    15    11    13   ar
    16    13    14   ar
    17    14    15   ar
    18    15     1    1
    19     1     2    1
    20     2     3    1
    21     3     4    1
    22     4     5   am
    23     5     6    2
    24     5    29    1
    25    29    36    1
    26    36    37    1
    27    37    38   ar
    28    38    39   ar
    29    39    40   ar
    30    40    41    1
    31    40    42   ar
    32    42    43   ar
    33    43    44    1
    34    29    30    1
    35    30    31    1
    36    31    32    1
    37    32    33    1
    38    33    34    1
    39    34    35    2
    40     4     7    1
    41     7     8    1
    42    15     9   ar
    43     8     1    1
    44    43    37   ar
    45    34    30   am
    46    23    24    1
    47    19    20    1
@<TRIPOS>MOLECULE
*****
 44 47 0 0 0
SMALL
GASTEIGER

@<TRIPOS>ATOM
      1 N          62.3507   89.5218   11.5491 N.pl3   1  UNL1       -0.3043
      2 C          61.9587   89.5563   12.9966 C.3     1  UNL1        0.1123
      3 C          62.7314   90.4042   13.9629 C.3     1  UNL1        0.1149
      4 N          63.8963   91.2178   13.4818 N.am    1  UNL1       -0.2747
      5 C          64.6690   92.0657   14.4481 C.2     1  UNL1        0.2442
      6 O          64.2769   92.1002   15.8955 O.2     1  UNL1       -0.2731
      7 C          64.2883   91.1833   12.0343 C.3     1  UNL1        0.1149
      8 C          63.5155   90.3352   11.0680 C.3     1  UNL1        0.1123
      9 C          61.6063   87.1792   10.7074 C.ar    1  UNL1        0.0111
     10 C          60.8336   86.3313    9.7411 C.ar    1  UNL1        0.0282
     11 C          60.0324   86.9779    8.6502 C.ar    1  UNL1        0.1400
     12 F          59.2596   86.1298    7.6839 F       1  UNL1       -0.2042
     13 C          60.0040   88.4724    8.5256 C.ar    1  UNL1        0.0309
     14 C          60.7768   89.3203    9.4919 C.ar    1  UNL1        0.0166
     15 C          61.5779   88.6737   10.5828 C.ar    1  UNL1        0.0456
     16 C          62.4075   86.5326   11.7983 C.3     1  UNL1        0.0953
     17 C          62.7077   83.9690   11.5026 C.2     1  UNL1        0.2388
     18 O          63.6336   84.2106   10.3474 O.2     1  UNL1       -0.2736
     19 N          62.0947   85.1300   12.2280 N.am    1  UNL1       -0.3010
     20 H          61.4870   84.9714   12.9861 H       1  UNL1        0.1497
     21 C          62.3948   82.5663   11.9323 C.3     1  UNL1        0.1549
     22 C          62.0884   82.0588   14.4618 C.3     1  UNL1        0.0862
     23 N          62.9395   82.0394   13.2268 N.3     1  UNL1       -0.2887
     24 H          63.1985   81.0665   13.0630 H       1  UNL1        0.1237
     25 C          63.5215   87.2887   12.4596 C.3     1  UNL1        0.0242
     26 C          64.0790   86.8112   13.7677 C.3     1  UNL1        0.0020
     27 C          64.3658   87.7938   14.8642 C.3     1  UNL1        0.0001
     28 C          64.3496   85.3511   13.9794 C.3     1  UNL1        0.0001
     29 C          65.8337   92.8792   13.9670 C.3     1  UNL1        0.1564
     30 N          67.0935   92.9386   14.7790 N.am    1  UNL1       -0.2727
     31 C          67.8348   94.1838   15.1665 C.3     1  UNL1        0.0943
     32 C          69.0326   93.7781   15.9731 C.3     1  UNL1        0.0311
     33 C          69.0317   92.2822   16.0841 C.3     1  UNL1        0.0870
     34 C          67.8333   91.7633   15.3461 C.2     1  UNL1        0.2260
     35 O          67.4431   90.3223   15.2008 O.2     1  UNL1       -0.2749
     36 C          65.7388   93.6332   12.6737 C.3     1  UNL1        0.0564
     37 C          66.6406   93.2763   11.5294 C.ar    1  UNL1       -0.0094
     38 C          67.5146   92.0601   11.6145 C.ar    1  UNL1       -0.0025
     39 C          68.4164   91.7031   10.4702 C.ar    1  UNL1        0.0111
     40 C          68.4441   92.5623    9.2409 C.ar    1  UNL1        0.0585
     41 CL         69.3459   92.2053    8.0966 Cl      1  UNL1       -0.0822
     42 C          67.5701   93.7783    9.1559 C.ar    1  UNL1        0.0225
     43 C          66.6684   94.1353   10.3001 C.ar    1  UNL1        0.0546
     44 CL         65.7944   95.3514   10.2151 Cl      1  UNL1       -0.0825
@<TRIPOS>BOND
     1    22    23    1
     2    23    21    1
     3    21    17    1
     4    17    18    2
     5    17    19   am
     6    19    16    1
     7    16    25    1
     8    25    26    1
     9    26    27    1
    10    26    28    1
    11    16     9    1
    12     9    10   ar
    13    10    11   ar
    14    11    12    1
    15    11    13   ar
    16    13    14   ar
    17    14    15   ar
    18    15     1    1
    19     1     2    1
    20     2     3    1
    21     3     4    1
    22     4     5   am
    23     5     6    2
    24     5    29    1
    25    29    36    1
    26    36    37    1
    27    37    38   ar
    28    38    39   ar
    29    39    40   ar
    30    40    41    1
    31    40    42   ar
    32    42    43   ar
    33    43    44    1
    34    29    30    1
    35    30    31    1
    36    31    32    1
    37    32    33    1
    38    33    34    1
    39    34    35    2
    40     4     7    1
    41     7     8    1
    42    15     9   ar
    43     8     1    1
    44    43    37   ar
    45    34    30   am
    46    23    24    1
    47    19    20    1
