@<TRIPOS>MOLECULE
*****
 28 30 0 0 0
SMALL
GASTEIGER

@<TRIPOS>ATOM
      1 O          62.0405   85.2771   10.3707 O.2     1  UNL1       -0.2522
      2 C          62.7973   85.5938   11.6264 C.2     1  UNL1        0.3077
      3 N          63.3952   84.4856   12.4415 N.am    1  UNL1       -0.2681
      4 N          62.9561   87.0188   12.0672 N.am    1  UNL1       -0.2637
      5 C          62.3582   88.1270   11.2521 C.3     1  UNL1        0.0950
      6 C          62.5171   89.5520   11.6929 C.3     1  UNL1        0.0219
      7 C          63.2738   89.8687   12.9486 C.3     1  UNL1        0.0075
      8 C          63.8718   88.7605   13.7637 C.3     1  UNL1        0.0374
      9 C          63.7129   87.3356   13.3229 C.3     1  UNL1        0.0989
     10 H          63.8919   84.6935   13.2657 H       1  UNL1        0.1564
     11 C          63.2364   83.0606   12.0008 C.ar    1  UNL1        0.0516
     12 C          62.6232   82.0529   12.9273 C.ar    1  UNL1        0.0156
     13 C          62.4644   80.6280   12.4865 C.ar    1  UNL1        0.0127
     14 C          62.9188   80.2107   11.1193 C.ar    1  UNL1        0.0578
     15 CL         62.7599   78.7857   10.6785 Cl      1  UNL1       -0.0822
     16 C          63.5320   81.2184   10.1927 C.ar    1  UNL1        0.0127
     17 C          63.6908   82.6433   10.6335 C.ar    1  UNL1        0.0156
     18 C          64.2885   89.9433   14.5868 C.ar    1  UNL1       -0.0212
     19 C          63.5672   90.2603   15.8632 C.ar    1  UNL1       -0.0042
     20 C          63.9840   91.4431   16.6863 C.ar    1  UNL1       -0.0003
     21 C          65.1221   92.3087   16.2329 C.ar    1  UNL1       -0.0000
     22 C          65.8434   91.9916   14.9565 C.ar    1  UNL1       -0.0003
     23 C          65.4266   90.8088   14.1334 C.ar    1  UNL1       -0.0042
     24 C          64.6144   88.0630   14.8646 C.3     1  UNL1        0.0083
     25 C          64.3773   86.6045   15.1225 C.3     1  UNL1        0.0321
     26 C          63.6376   86.1710   16.3533 C.3     1  UNL1        0.1372
     27 O          62.6102   87.0745   16.9682 O.3     1  UNL1       -0.3820
     28 H          63.0443   87.8710   17.3118 H       1  UNL1        0.2104
@<TRIPOS>BOND
     1     1     2    2
     2     2     3   am
     3     3    11    1
     4    11    12   ar
     5    12    13   ar
     6    13    14   ar
     7    14    15    1
     8    14    16   ar
     9    16    17   ar
    10     2     4   am
    11     4     5    1
    12     5     6    1
    13     6     7    1
    14     7     8    1
    15     8    24    1
    16    24    25    1
    17    25    26    1
    18    26    27    1
    19     8    18    1
    20    18    19   ar
    21    19    20   ar
    22    20    21   ar
    23    21    22   ar
    24    22    23   ar
    25     8     9    1
    26    17    11   ar
    27     9     4    1
    28    23    18   ar
    29     3    10    1
    30    27    28    1
@<TRIPOS>MOLECULE
*****
 28 30 0 0 0
SMALL
GASTEIGER

@<TRIPOS>ATOM
      1 O          62.7492   84.6160   11.4530 O.2     1  UNL1       -0.2522
      2 C          62.9094   86.1070   11.4206 C.2     1  UNL1        0.3077
      3 N          62.6086   86.8666   10.1626 N.am    1  UNL1       -0.2681
      4 N          63.3705   86.8385   12.6464 N.am    1  UNL1       -0.2637
      5 C          63.6713   86.0790   13.9043 C.3     1  UNL1        0.0950
      6 C          64.1324   86.8105   15.1300 C.3     1  UNL1        0.0219
      7 C          64.2926   88.3016   15.0977 C.3     1  UNL1        0.0075
      8 C          63.9918   89.0611   13.8397 C.3     1  UNL1        0.0374
      9 C          63.5308   88.3296   12.6140 C.3     1  UNL1        0.0989
     10 H          62.7138   87.8452   10.1414 H       1  UNL1        0.1564
     11 C          62.1475   86.1350    8.9369 C.ar    1  UNL1        0.0516
     12 C          63.1158   85.2988    8.1539 C.ar    1  UNL1        0.0156
     13 C          62.6547   84.5673    6.9283 C.ar    1  UNL1        0.0127
     14 C          61.2253   84.6721    6.4856 C.ar    1  UNL1        0.0578
     15 CL         60.7642   83.9406    5.2598 Cl      1  UNL1       -0.0822
     16 C          60.2571   85.5084    7.2686 C.ar    1  UNL1        0.0127
     17 C          60.7182   86.2398    8.4942 C.ar    1  UNL1        0.0156
     18 C          64.3974   90.1930   14.7367 C.ar    1  UNL1       -0.0212
     19 C          65.6138   91.0083   14.4120 C.ar    1  UNL1       -0.0042
     20 C          66.0193   92.1402   15.3090 C.ar    1  UNL1       -0.0003
     21 C          65.2084   92.4566   16.5305 C.ar    1  UNL1       -0.0000
     22 C          63.9919   91.6412   16.8552 C.ar    1  UNL1       -0.0003
     23 C          63.5864   90.5094   15.9582 C.ar    1  UNL1       -0.0042
     24 C          63.8319   90.2138   12.8931 C.3     1  UNL1        0.0083
     25 C          62.6070   90.3136   12.0331 C.3     1  UNL1        0.0321
     26 C          62.7118   90.8563   10.6387 C.3     1  UNL1        0.1372
     27 O          61.6323   90.5670    9.6382 O.3     1  UNL1       -0.3820
     28 H          61.6194   89.6171    9.4421 H       1  UNL1        0.2104
@<TRIPOS>BOND
     1     1     2    2
     2     2     3   am
     3     3    11    1
     4    11    12   ar
     5    12    13   ar
     6    13    14   ar
     7    14    15    1
     8    14    16   ar
     9    16    17   ar
    10     2     4   am
    11     4     5    1
    12     5     6    1
    13     6     7    1
    14     7     8    1
    15     8    24    1
    16    24    25    1
    17    25    26    1
    18    26    27    1
    19     8    18    1
    20    18    19   ar
    21    19    20   ar
    22    20    21   ar
    23    21    22   ar
    24    22    23   ar
    25     8     9    1
    26    17    11   ar
    27     9     4    1
    28    23    18   ar
    29     3    10    1
    30    27    28    1
@<TRIPOS>MOLECULE
*****
 28 30 0 0 0
SMALL
GASTEIGER

@<TRIPOS>ATOM
      1 O          61.6563   86.1043   11.0660 O.2     1  UNL1       -0.2522
      2 C          62.5955   86.6778   12.0854 C.2     1  UNL1        0.3077
      3 N          63.1341   85.8078   13.1821 N.am    1  UNL1       -0.2681
      4 N          62.9959   88.1213   12.0080 N.am    1  UNL1       -0.2637
      5 C          62.4572   88.9913   10.9112 C.3     1  UNL1        0.0950
      6 C          62.8577   90.4347   10.8339 C.3     1  UNL1        0.0219
      7 C          63.7968   91.0082   11.8533 C.3     1  UNL1        0.0075
      8 C          64.3355   90.1382   12.9500 C.3     1  UNL1        0.0374
      9 C          63.9351   88.6947   13.0274 C.3     1  UNL1        0.0989
     10 H          63.7505   86.1842   13.8511 H       1  UNL1        0.1564
     11 C          62.7337   84.3642   13.2595 C.ar    1  UNL1        0.0516
     12 C          62.8253   83.4941   12.0411 C.ar    1  UNL1        0.0156
     13 C          62.4249   82.0507   12.1185 C.ar    1  UNL1        0.0127
     14 C          61.9328   81.4773   13.4143 C.ar    1  UNL1        0.0578
     15 CL         61.5323   80.0338   13.4917 Cl      1  UNL1       -0.0822
     16 C          61.8411   82.3474   14.6327 C.ar    1  UNL1        0.0127
     17 C          62.2416   83.7909   14.5553 C.ar    1  UNL1        0.0156
     18 C          65.0037   91.4361   13.2952 C.ar    1  UNL1       -0.0212
     19 C          65.2920   92.4406   12.2192 C.ar    1  UNL1       -0.0042
     20 C          65.9602   93.7385   12.5644 C.ar    1  UNL1       -0.0003
     21 C          66.3399   94.0318   13.9856 C.ar    1  UNL1       -0.0000
     22 C          66.0516   93.0273   15.0616 C.ar    1  UNL1       -0.0003
     23 C          65.3834   91.7294   14.7164 C.ar    1  UNL1       -0.0042
     24 C          65.1063   89.7189   14.1667 C.3     1  UNL1        0.0083
     25 C          64.5326   88.6967   15.1025 C.3     1  UNL1        0.0321
     26 C          63.4830   89.0956   16.0971 C.3     1  UNL1        0.1372
     27 O          62.7957   88.0488   16.9228 O.3     1  UNL1       -0.3820
     28 H          62.2638   87.4792   16.3453 H       1  UNL1        0.2104
@<TRIPOS>BOND
     1     1     2    2
     2     2     3   am
     3     3    11    1
     4    11    12   ar
     5    12    13   ar
     6    13    14   ar
     7    14    15    1
     8    14    16   ar
     9    16    17   ar
    10     2     4   am
    11     4     5    1
    12     5     6    1
    13     6     7    1
    14     7     8    1
    15     8    24    1
    16    24    25    1
    17    25    26    1
    18    26    27    1
    19     8    18    1
    20    18    19   ar
    21    19    20   ar
    22    20    21   ar
    23    21    22   ar
    24    22    23   ar
    25     8     9    1
    26    17    11   ar
    27     9     4    1
    28    23    18   ar
    29     3    10    1
    30    27    28    1
@<TRIPOS>MOLECULE
*****
 28 30 0 0 0
SMALL
GASTEIGER

@<TRIPOS>ATOM
      1 O          61.2108   89.2165   13.0626 O.2     1  UNL1       -0.2522
      2 C          62.5307   89.7307   12.5693 C.2     1  UNL1        0.3077
      3 N          62.8911   89.6023   11.1189 N.am    1  UNL1       -0.2681
      4 N          63.4904   90.3735   13.5265 N.am    1  UNL1       -0.2637
      5 C          63.1301   90.5020   14.9768 C.3     1  UNL1        0.0950
      6 C          64.0897   91.1446   15.9339 C.3     1  UNL1        0.0219
      7 C          65.4096   91.6588   15.4406 C.3     1  UNL1        0.0075
      8 C          65.7699   91.5304   13.9902 C.3     1  UNL1        0.0374
      9 C          64.8103   90.8877   13.0332 C.3     1  UNL1        0.0989
     10 H          63.7574   89.9398   10.7952 H       1  UNL1        0.1564
     11 C          61.9314   88.9595   10.1618 C.ar    1  UNL1        0.0516
     12 C          62.0300   87.4908    9.8739 C.ar    1  UNL1        0.0156
     13 C          61.0703   86.8481    8.9168 C.ar    1  UNL1        0.0127
     14 C          60.0122   87.6743    8.2476 C.ar    1  UNL1        0.0578
     15 CL         59.0526   87.0315    7.2904 Cl      1  UNL1       -0.0822
     16 C          59.9137   89.1430    8.5355 C.ar    1  UNL1        0.0127
     17 C          60.8733   89.7857    9.4926 C.ar    1  UNL1        0.0156
     18 C          67.0035   92.2105   14.5058 C.ar    1  UNL1       -0.0212
     19 C          66.8885   93.2828   15.5484 C.ar    1  UNL1       -0.0042
     20 C          68.1221   93.9629   16.0640 C.ar    1  UNL1       -0.0003
     21 C          69.4706   93.5707   15.5369 C.ar    1  UNL1       -0.0000
     22 C          69.5856   92.4983   14.4944 C.ar    1  UNL1       -0.0003
     23 C          68.3520   91.8182   13.9788 C.ar    1  UNL1       -0.0042
     24 C          66.5587   91.6381   12.7189 C.3     1  UNL1        0.0083
     25 C          65.9996   92.3958   11.5513 C.3     1  UNL1        0.0321
     26 C          66.9014   92.8164   10.4289 C.3     1  UNL1        0.1372
     27 O          68.3522   92.4361   10.4496 O.3     1  UNL1       -0.3820
     28 H          68.7933   92.8837   11.1885 H       1  UNL1        0.2104
@<TRIPOS>BOND
     1     1     2    2
     2     2     3   am
     3     3    11    1
     4    11    12   ar
     5    12    13   ar
     6    13    14   ar
     7    14    15    1
     8    14    16   ar
     9    16    17   ar
    10     2     4   am
    11     4     5    1
    12     5     6    1
    13     6     7    1
    14     7     8    1
    15     8    24    1
    16    24    25    1
    17    25    26    1
    18    26    27    1
    19     8    18    1
    20    18    19   ar
    21    19    20   ar
    22    20    21   ar
    23    21    22   ar
    24    22    23   ar
    25     8     9    1
    26    17    11   ar
    27     9     4    1
    28    23    18   ar
    29     3    10    1
    30    27    28    1
@<TRIPOS>MOLECULE
*****
 28 30 0 0 0
SMALL
GASTEIGER

@<TRIPOS>ATOM
      1 O          62.4887   82.9233   15.3507 O.2     1  UNL1       -0.2522
      2 C          63.0029   84.1153   14.5992 C.2     1  UNL1        0.3077
      3 N          63.3667   83.9883   13.1496 N.am    1  UNL1       -0.2681
      4 N          63.1534   85.4344   15.2974 N.am    1  UNL1       -0.2637
      5 C          62.7895   85.5615   16.7471 C.3     1  UNL1        0.0950
      6 C          62.9400   86.8805   17.4452 C.3     1  UNL1        0.0219
      7 C          63.4542   88.0725   16.6937 C.3     1  UNL1        0.0075
      8 C          63.8181   87.9454   15.2441 C.3     1  UNL1        0.0374
      9 C          63.6676   86.6264   14.5460 C.3     1  UNL1        0.0989
     10 H          63.7043   84.7706   12.6564 H       1  UNL1        0.1564
     11 C          63.2163   82.6692   12.4514 C.ar    1  UNL1        0.0516
     12 C          62.7640   81.4620   13.2182 C.ar    1  UNL1        0.0156
     13 C          62.6136   80.1430   12.5200 C.ar    1  UNL1        0.0127
     14 C          62.9155   80.0312   11.0549 C.ar    1  UNL1        0.0578
     15 CL         62.7651   78.7121   10.3567 Cl      1  UNL1       -0.0822
     16 C          63.3678   81.2384   10.2881 C.ar    1  UNL1        0.0127
     17 C          63.5182   82.5574   10.9863 C.ar    1  UNL1        0.0156
     18 C          64.1328   89.3953   15.4655 C.ar    1  UNL1       -0.0212
     19 C          63.3720   90.1794   16.4933 C.ar    1  UNL1       -0.0042
     20 C          63.6868   91.6293   16.7147 C.ar    1  UNL1       -0.0003
     21 C          64.7623   92.2948   15.9084 C.ar    1  UNL1       -0.0000
     22 C          65.5232   91.5106   14.8806 C.ar    1  UNL1       -0.0003
     23 C          65.2084   90.0608   14.6592 C.ar    1  UNL1       -0.0042
     24 C          64.2912   88.3219   13.8713 C.3     1  UNL1        0.0083
     25 C          63.4164   88.0658   12.6801 C.3     1  UNL1        0.0321
     26 C          62.7799   89.2150   11.9561 C.3     1  UNL1        0.1372
     27 O          62.3149   90.4185   12.7211 O.3     1  UNL1       -0.3820
     28 H          61.5812   90.1675   13.3039 H       1  UNL1        0.2104
@<TRIPOS>BOND
     1     1     2    2
     2     2     3   am
     3     3    11    1
     4    11    12   ar
     5    12    13   ar
     6    13    14   ar
     7    14    15    1
     8    14    16   ar
     9    16    17   ar
    10     2     4   am
    11     4     5    1
    12     5     6    1
    13     6     7    1
    14     7     8    1
    15     8    24    1
    16    24    25    1
    17    25    26    1
    18    26    27    1
    19     8    18    1
    20    18    19   ar
    21    19    20   ar
    22    20    21   ar
    23    21    22   ar
    24    22    23   ar
    25     8     9    1
    26    17    11   ar
    27     9     4    1
    28    23    18   ar
    29     3    10    1
    30    27    28    1
@<TRIPOS>MOLECULE
*****
 28 30 0 0 0
SMALL
GASTEIGER

@<TRIPOS>ATOM
      1 O          61.7066   84.6654   11.1985 O.2     1  UNL1       -0.2522
      2 C          62.5134   85.3237   12.2781 C.2     1  UNL1        0.3077
      3 N          63.0437   84.5090   13.4205 N.am    1  UNL1       -0.2681
      4 N          62.7901   86.7966   12.2154 N.am    1  UNL1       -0.2637
      5 C          62.2598   87.6113   11.0730 C.3     1  UNL1        0.0950
      6 C          62.5364   89.0842   11.0103 C.3     1  UNL1        0.0219
      7 C          63.3433   89.7425   12.0899 C.3     1  UNL1        0.0075
      8 C          63.8736   88.9278   13.2323 C.3     1  UNL1        0.0374
      9 C          63.5969   87.4549   13.2950 C.3     1  UNL1        0.0989
     10 H          63.5733   84.9410   14.1291 H       1  UNL1        0.1564
     11 C          62.7671   83.0360   13.4832 C.ar    1  UNL1        0.0516
     12 C          61.5705   82.5288   14.2322 C.ar    1  UNL1        0.0156
     13 C          61.2940   81.0559   14.2949 C.ar    1  UNL1        0.0127
     14 C          62.2140   80.0901   13.6087 C.ar    1  UNL1        0.0578
     15 CL         61.9374   78.6171   13.6714 Cl      1  UNL1       -0.0822
     16 C          63.4106   80.5973   12.8597 C.ar    1  UNL1        0.0127
     17 C          63.6871   82.0702   12.7970 C.ar    1  UNL1        0.0156
     18 C          64.3976   90.2810   13.6122 C.ar    1  UNL1       -0.0212
     19 C          64.7337   91.2814   12.5462 C.ar    1  UNL1       -0.0042
     20 C          65.2577   92.6346   12.9261 C.ar    1  UNL1       -0.0003
     21 C          65.4455   92.9874   14.3719 C.ar    1  UNL1       -0.0000
     22 C          65.1093   91.9870   15.4378 C.ar    1  UNL1       -0.0003
     23 C          64.5853   90.6338   15.0580 C.ar    1  UNL1       -0.0042
     24 C          64.5858   88.5830   14.5067 C.3     1  UNL1        0.0083
     25 C          64.4810   87.1982   15.0735 C.3     1  UNL1        0.0321
     26 C          63.8094   86.9782   16.3965 C.3     1  UNL1        0.1372
     27 O          63.3227   88.1510   17.1949 O.3     1  UNL1       -0.3820
     28 H          64.0810   88.6822   17.4843 H       1  UNL1        0.2104
@<TRIPOS>BOND
     1     1     2    2
     2     2     3   am
     3     3    11    1
     4    11    12   ar
     5    12    13   ar
     6    13    14   ar
     7    14    15    1
     8    14    16   ar
     9    16    17   ar
    10     2     4   am
    11     4     5    1
    12     5     6    1
    13     6     7    1
    14     7     8    1
    15     8    24    1
    16    24    25    1
    17    25    26    1
    18    26    27    1
    19     8    18    1
    20    18    19   ar
    21    19    20   ar
    22    20    21   ar
    23    21    22   ar
    24    22    23   ar
    25     8     9    1
    26    17    11   ar
    27     9     4    1
    28    23    18   ar
    29     3    10    1
    30    27    28    1
