@<TRIPOS>MOLECULE
*****
 26 29 0 0 0
SMALL
GASTEIGER

@<TRIPOS>ATOM
      1 O          64.1596   91.8258   16.7492 O.2     1  UNL1       -0.2699
      2 C          64.4394   90.8688   15.6286 C.2     1  UNL1        0.2494
      3 N          63.9482   89.4538   15.7105 N.am    1  UNL1       -0.2698
      4 C          63.1773   88.9959   16.9131 C.3     1  UNL1        0.1021
      5 C          62.6862   87.5810   16.9950 C.3     1  UNL1        0.0874
      6 C          62.9659   86.6239   15.8743 C.ar    1  UNL1        0.1415
      7 O          62.6116   85.1799   15.6756 O.2     1  UNL1       -0.4380
      8 C          63.1634   84.7454   14.3502 C.ar    1  UNL1        0.2471
      9 N          63.8588   85.9208   13.7299 N.ar    1  UNL1       -0.2100
     10 C          63.7368   87.0818   14.6718 C.ar    1  UNL1        0.1124
     11 C          64.2279   88.4967   14.5899 C.3     1  UNL1        0.1425
     12 C          65.2102   91.3266   14.4261 C.ar    1  UNL1        0.0567
     13 C          66.7046   91.4383   14.4910 C.ar    1  UNL1        0.0342
     14 C          67.4755   91.8962   13.2884 C.ar    1  UNL1        0.1411
     15 F          68.9699   92.0078   13.3533 F       1  UNL1       -0.2041
     16 C          66.7519   92.2424   12.0209 C.ar    1  UNL1        0.0410
     17 C          65.2574   92.1307   11.9560 C.ar    1  UNL1        0.0601
     18 CL         64.5338   92.4769   10.6885 Cl      1  UNL1       -0.0822
     19 C          64.4866   91.6729   13.1585 C.ar    1  UNL1        0.0161
     20 C          63.0414   83.3759   13.7505 C.ar    1  UNL1        0.1348
     21 C          63.1634   83.1934   12.2667 C.ar    1  UNL1        0.0262
     22 C          63.0414   81.8240   11.6669 C.ar    1  UNL1        0.0329
     23 C          62.7973   80.6371   12.5510 C.ar    1  UNL1        0.1592
     24 F          62.6752   79.2676   11.9512 F       1  UNL1       -0.2025
     25 C          62.6752   80.8196   14.0348 C.ar    1  UNL1        0.1285
     26 N          62.7973   82.1890   14.6346 N.ar    1  UNL1       -0.2368
@<TRIPOS>BOND
     1     1     2    2
     2     2    12    1
     3    12    13   ar
     4    13    14   ar
     5    14    15    1
     6    14    16   ar
     7    16    17   ar
     8    17    18    1
     9    17    19   ar
    10     2     3   am
    11     3     4    1
    12     4     5    1
    13     5     6    1
    14     6     7   ar
    15     7     8   ar
    16     8    20    1
    17    20    21   ar
    18    21    22   ar
    19    22    23   ar
    20    23    24    1
    21    23    25   ar
    22    25    26   ar
    23     8     9   ar
    24     9    10   ar
    25    10    11    1
    26    19    12   ar
    27    11     3    1
    28    10     6   ar
    29    26    20   ar
@<TRIPOS>MOLECULE
*****
 26 29 0 0 0
SMALL
GASTEIGER

@<TRIPOS>ATOM
      1 O          64.2955   92.1194   16.5545 O.2     1  UNL1       -0.2699
      2 C          64.5495   91.1033   15.4808 C.2     1  UNL1        0.2494
      3 N          64.0629   89.6946   15.6510 N.am    1  UNL1       -0.2698
      4 C          63.3222   89.3021   16.8949 C.3     1  UNL1        0.1021
      5 C          62.8356   87.8935   17.0650 C.3     1  UNL1        0.0874
      6 C          63.0897   86.8774   15.9913 C.ar    1  UNL1        0.1415
      7 O          62.7330   85.4246   15.8796 O.2     1  UNL1       -0.4380
      8 C          63.2533   84.9193   14.5666 C.ar    1  UNL1        0.2471
      9 N          63.9315   86.0597   13.8669 N.ar    1  UNL1       -0.2100
     10 C          63.8303   87.2699   14.7474 C.ar    1  UNL1        0.1124
     11 C          64.3169   88.6785   14.5772 C.3     1  UNL1        0.1425
     12 C          65.2902   91.4957   14.2369 C.ar    1  UNL1        0.0567
     13 C          64.5310   91.8935   13.0059 C.ar    1  UNL1        0.0342
     14 C          65.2717   92.2859   11.7619 C.ar    1  UNL1        0.1411
     15 F          64.5125   92.6837   10.5309 F       1  UNL1       -0.2041
     16 C          66.7716   92.2807   11.7490 C.ar    1  UNL1        0.0410
     17 C          67.5309   91.8829   12.9800 C.ar    1  UNL1        0.0601
     18 CL         69.0308   91.8776   12.9671 Cl      1  UNL1       -0.0822
     19 C          66.7902   91.4905   14.2239 C.ar    1  UNL1        0.0161
     20 C          63.1190   83.5193   14.0449 C.ar    1  UNL1        0.1348
     21 C          62.1043   82.5903   14.6426 C.ar    1  UNL1        0.0262
     22 C          61.9700   81.1904   14.1210 C.ar    1  UNL1        0.0329
     23 C          62.8505   80.7195   13.0016 C.ar    1  UNL1        0.1592
     24 F          62.7162   79.3195   12.4799 F       1  UNL1       -0.2025
     25 C          63.8652   81.6485   12.4039 C.ar    1  UNL1        0.1285
     26 N          63.9995   83.0484   12.9256 N.ar    1  UNL1       -0.2368
@<TRIPOS>BOND
     1     1     2    2
     2     2    12    1
     3    12    13   ar
     4    13    14   ar
     5    14    15    1
     6    14    16   ar
     7    16    17   ar
     8    17    18    1
     9    17    19   ar
    10     2     3   am
    11     3     4    1
    12     4     5    1
    13     5     6    1
    14     6     7   ar
    15     7     8   ar
    16     8    20    1
    17    20    21   ar
    18    21    22   ar
    19    22    23   ar
    20    23    24    1
    21    23    25   ar
    22    25    26   ar
    23     8     9   ar
    24     9    10   ar
    25    10    11    1
    26    19    12   ar
    27    11     3    1
    28    10     6   ar
    29    26    20   ar
@<TRIPOS>MOLECULE
*****
 26 29 0 0 0
SMALL
GASTEIGER

@<TRIPOS>ATOM
      1 O          64.0214   91.7853   16.3114 O.2     1  UNL1       -0.2699
      2 C          64.0893   90.8404   15.1484 C.2     1  UNL1        0.2494
      3 N          63.7784   89.3861   15.3445 N.am    1  UNL1       -0.2698
      4 C          63.3995   88.8767   16.7035 C.3     1  UNL1        0.1021
      5 C          63.0886   87.4225   16.8995 C.3     1  UNL1        0.0874
      6 C          63.1565   86.4776   15.7365 C.ar    1  UNL1        0.1415
      7 O          62.9060   85.0028   15.6256 O.2     1  UNL1       -0.4380
      8 C          63.1301   84.6007   14.1980 C.ar    1  UNL1        0.2471
      9 N          63.5190   85.8270   13.4266 N.ar    1  UNL1       -0.2100
     10 C          63.5354   86.9870   14.3775 C.ar    1  UNL1        0.1124
     11 C          63.8463   88.4412   14.1815 C.3     1  UNL1        0.1425
     12 C          64.4682   91.3498   13.7894 C.ar    1  UNL1        0.0567
     13 C          65.7077   92.1768   13.6172 C.ar    1  UNL1        0.0342
     14 C          66.0865   92.6862   12.2580 C.ar    1  UNL1        0.1411
     15 F          67.3260   93.5133   12.0858 F       1  UNL1       -0.2041
     16 C          65.2259   92.3685   11.0713 C.ar    1  UNL1        0.0410
     17 C          63.9865   91.5414   11.2436 C.ar    1  UNL1        0.0601
     18 CL         63.1259   91.2236   10.0568 Cl      1  UNL1       -0.0822
     19 C          63.6076   91.0320   12.6026 C.ar    1  UNL1        0.0161
     20 C          62.9898   83.2155   13.6397 C.ar    1  UNL1        0.1348
     21 C          62.2287   82.1726   14.4033 C.ar    1  UNL1        0.0262
     22 C          62.0884   80.7875   13.8451 C.ar    1  UNL1        0.0329
     23 C          62.7092   80.4453   12.5232 C.ar    1  UNL1        0.1592
     24 F          62.5689   79.0601   11.9648 F       1  UNL1       -0.2025
     25 C          63.4702   81.4882   11.7595 C.ar    1  UNL1        0.1285
     26 N          63.6105   82.8733   12.3178 N.ar    1  UNL1       -0.2368
@<TRIPOS>BOND
     1     1     2    2
     2     2    12    1
     3    12    13   ar
     4    13    14   ar
     5    14    15    1
     6    14    16   ar
     7    16    17   ar
     8    17    18    1
     9    17    19   ar
    10     2     3   am
    11     3     4    1
    12     4     5    1
    13     5     6    1
    14     6     7   ar
    15     7     8   ar
    16     8    20    1
    17    20    21   ar
    18    21    22   ar
    19    22    23   ar
    20    23    24    1
    21    23    25   ar
    22    25    26   ar
    23     8     9   ar
    24     9    10   ar
    25    10    11    1
    26    19    12   ar
    27    11     3    1
    28    10     6   ar
    29    26    20   ar
@<TRIPOS>MOLECULE
*****
 26 29 0 0 0
SMALL
GASTEIGER

@<TRIPOS>ATOM
      1 O          60.2181   86.3979    9.9426 O.2     1  UNL1       -0.2699
      2 C          61.4446   86.5174   10.7977 C.2     1  UNL1        0.2494
      3 N          61.9364   87.8706   11.2186 N.am    1  UNL1       -0.2698
      4 C          61.2018   89.1041   10.7844 C.3     1  UNL1        0.1021
      5 C          61.6936   90.4572   11.2053 C.3     1  UNL1        0.0874
      6 C          62.9202   90.5768   12.0605 C.ar    1  UNL1        0.1415
      7 O          63.6367   91.7667   12.6269 O.2     1  UNL1       -0.4380
      8 C          64.8142   91.2685   13.4113 C.ar    1  UNL1        0.2471
      9 N          64.8254   89.7707   13.3295 N.ar    1  UNL1       -0.2100
     10 C          63.6548   89.3432   12.4947 C.ar    1  UNL1        0.1124
     11 C          63.1630   87.9902   12.0738 C.3     1  UNL1        0.1425
     12 C          62.1793   85.2839   11.2320 C.ar    1  UNL1        0.0567
     13 C          62.9983   84.5109   10.2412 C.ar    1  UNL1        0.0342
     14 C          63.7330   83.2773   10.6755 C.ar    1  UNL1        0.1411
     15 F          64.5521   82.5043    9.6847 F       1  UNL1       -0.2041
     16 C          63.6487   82.8168   12.1005 C.ar    1  UNL1        0.0410
     17 C          62.8297   83.5898   13.0913 C.ar    1  UNL1        0.0601
     18 CL         62.7454   83.1293   14.5164 Cl      1  UNL1       -0.0822
     19 C          62.0950   84.8233   12.6571 C.ar    1  UNL1        0.0161
     20 C          65.8064   92.1187   14.1480 C.ar    1  UNL1        0.1348
     21 C          66.4886   91.5847   15.3725 C.ar    1  UNL1        0.0262
     22 C          67.4808   92.4349   16.1093 C.ar    1  UNL1        0.0329
     23 C          67.7906   93.8191   15.6216 C.ar    1  UNL1        0.1592
     24 F          68.7828   94.6693   16.3583 F       1  UNL1       -0.2025
     25 C          67.1083   94.3531   14.3971 C.ar    1  UNL1        0.1285
     26 N          66.1162   93.5029   13.6603 N.ar    1  UNL1       -0.2368
@<TRIPOS>BOND
     1     1     2    2
     2     2    12    1
     3    12    13   ar
     4    13    14   ar
     5    14    15    1
     6    14    16   ar
     7    16    17   ar
     8    17    18    1
     9    17    19   ar
    10     2     3   am
    11     3     4    1
    12     4     5    1
    13     5     6    1
    14     6     7   ar
    15     7     8   ar
    16     8    20    1
    17    20    21   ar
    18    21    22   ar
    19    22    23   ar
    20    23    24    1
    21    23    25   ar
    22    25    26   ar
    23     8     9   ar
    24     9    10   ar
    25    10    11    1
    26    19    12   ar
    27    11     3    1
    28    10     6   ar
    29    26    20   ar
@<TRIPOS>MOLECULE
*****
 26 29 0 0 0
SMALL
GASTEIGER

@<TRIPOS>ATOM
      1 O          58.5044   87.1328    7.4366 O.2     1  UNL1       -0.2699
      2 C          59.3251   88.3745    7.6228 C.2     1  UNL1        0.2494
      3 N          60.2074   88.5167    8.8276 N.am    1  UNL1       -0.2698
      4 C          60.2688   87.4172    9.8461 C.3     1  UNL1        0.1021
      5 C          61.1510   87.5595   11.0509 C.3     1  UNL1        0.0874
      6 C          61.9717   88.8012   11.2371 C.ar    1  UNL1        0.1415
      7 O          62.9258   89.2213   12.3158 O.2     1  UNL1       -0.4380
      8 C          63.4539   90.5804   11.9638 C.ar    1  UNL1        0.2471
      9 N          62.8263   91.0002   10.6677 N.ar    1  UNL1       -0.2100
     10 C          61.9102   89.9006   10.2186 C.ar    1  UNL1        0.1124
     11 C          61.0280   89.7584    9.0139 C.3     1  UNL1        0.1425
     12 C          59.2636   89.4739    6.6043 C.ar    1  UNL1        0.0567
     13 C          60.5200   89.9487    5.9365 C.ar    1  UNL1        0.0342
     14 C          60.4585   91.0482    4.9179 C.ar    1  UNL1        0.1411
     15 F          61.7149   91.5231    4.2500 F       1  UNL1       -0.2041
     16 C          59.1406   91.6729    4.5672 C.ar    1  UNL1        0.0410
     17 C          57.8842   91.1980    5.2351 C.ar    1  UNL1        0.0601
     18 CL         56.5663   91.8226    4.8844 Cl      1  UNL1       -0.0822
     19 C          57.9457   90.0986    6.2536 C.ar    1  UNL1        0.0161
     20 C          64.4371   91.3794   12.7669 C.ar    1  UNL1        0.1348
     21 C          64.7102   91.0149   14.1961 C.ar    1  UNL1        0.0262
     22 C          65.6934   91.8138   14.9992 C.ar    1  UNL1        0.0329
     23 C          66.4034   92.9774   14.3732 C.ar    1  UNL1        0.1592
     24 F          67.3866   93.7764   15.1763 F       1  UNL1       -0.2025
     25 C          66.1303   93.3420   12.9440 C.ar    1  UNL1        0.1285
     26 N          65.1471   92.5430   12.1409 N.ar    1  UNL1       -0.2368
@<TRIPOS>BOND
     1     1     2    2
     2     2    12    1
     3    12    13   ar
     4    13    14   ar
     5    14    15    1
     6    14    16   ar
     7    16    17   ar
     8    17    18    1
     9    17    19   ar
    10     2     3   am
    11     3     4    1
    12     4     5    1
    13     5     6    1
    14     6     7   ar
    15     7     8   ar
    16     8    20    1
    17    20    21   ar
    18    21    22   ar
    19    22    23   ar
    20    23    24    1
    21    23    25   ar
    22    25    26   ar
    23     8     9   ar
    24     9    10   ar
    25    10    11    1
    26    19    12   ar
    27    11     3    1
    28    10     6   ar
    29    26    20   ar
@<TRIPOS>MOLECULE
*****
 26 29 0 0 0
SMALL
GASTEIGER

@<TRIPOS>ATOM
      1 O          58.4655   87.1725    7.3922 O.2     1  UNL1       -0.2699
      2 C          59.2713   88.4245    7.5746 C.2     1  UNL1        0.2494
      3 N          60.1661   88.5731    8.7695 N.am    1  UNL1       -0.2698
      4 C          60.2549   87.4698    9.7818 C.3     1  UNL1        0.1021
      5 C          61.1496   87.6184   10.9765 C.3     1  UNL1        0.0874
      6 C          61.9554   88.8704   11.1589 C.ar    1  UNL1        0.1415
      7 O          62.9167   89.2984   12.2280 O.2     1  UNL1       -0.4380
      8 C          63.4219   90.6663   11.8763 C.ar    1  UNL1        0.2471
      9 N          62.7729   91.0836   10.5900 N.ar    1  UNL1       -0.2100
     10 C          61.8666   89.9736   10.1466 C.ar    1  UNL1        0.1124
     11 C          60.9719   89.8250    8.9519 C.3     1  UNL1        0.1425
     12 C          59.1825   89.5277    6.5623 C.ar    1  UNL1        0.0567
     13 C          57.8559   90.1545    6.2505 C.ar    1  UNL1        0.0342
     14 C          57.7671   91.2578    5.2381 C.ar    1  UNL1        0.1411
     15 F          56.4405   91.8845    4.9262 F       1  UNL1       -0.2041
     16 C          59.0049   91.7344    4.5376 C.ar    1  UNL1        0.0410
     17 C          60.3316   91.1076    4.8495 C.ar    1  UNL1        0.0601
     18 CL         61.5694   91.5842    4.1491 Cl      1  UNL1       -0.0822
     19 C          60.4204   90.0044    5.8618 C.ar    1  UNL1        0.0161
     20 C          64.4037   91.4749   12.6714 C.ar    1  UNL1        0.1348
     21 C          65.2743   92.4848   11.9842 C.ar    1  UNL1        0.0262
     22 C          66.2561   93.2935   12.7792 C.ar    1  UNL1        0.0329
     23 C          66.3673   93.0922   14.2615 C.ar    1  UNL1        0.1592
     24 F          67.3492   93.9009   15.0566 F       1  UNL1       -0.2025
     25 C          65.4968   92.0823   14.9487 C.ar    1  UNL1        0.1285
     26 N          64.5150   91.2737   14.1537 N.ar    1  UNL1       -0.2368
@<TRIPOS>BOND
     1     1     2    2
     2     2    12    1
     3    12    13   ar
     4    13    14   ar
     5    14    15    1
     6    14    16   ar
     7    16    17   ar
     8    17    18    1
     9    17    19   ar
    10     2     3   am
    11     3     4    1
    12     4     5    1
    13     5     6    1
    14     6     7   ar
    15     7     8   ar
    16     8    20    1
    17    20    21   ar
    18    21    22   ar
    19    22    23   ar
    20    23    24    1
    21    23    25   ar
    22    25    26   ar
    23     8     9   ar
    24     9    10   ar
    25    10    11    1
    26    19    12   ar
    27    11     3    1
    28    10     6   ar
    29    26    20   ar
@<TRIPOS>MOLECULE
*****
 26 29 0 0 0
SMALL
GASTEIGER

@<TRIPOS>ATOM
      1 O          62.3784   84.8506   17.1560 O.2     1  UNL1       -0.2699
      2 C          62.9150   85.4023   15.8685 C.2     1  UNL1        0.2494
      3 N          63.2286   86.8646   15.7521 N.am    1  UNL1       -0.2698
      4 C          63.0055   87.7750   16.9231 C.3     1  UNL1        0.1021
      5 C          63.3191   89.2372   16.8065 C.3     1  UNL1        0.0874
      6 C          63.8557   89.7890   15.5191 C.ar    1  UNL1        0.1415
      7 O          64.2536   91.1762   15.1100 O.2     1  UNL1       -0.4380
      8 C          64.7226   91.1231   13.6862 C.ar    1  UNL1        0.2471
      9 N          64.6145   89.7030   13.2153 N.ar    1  UNL1       -0.2100
     10 C          64.0787   88.8785   14.3481 C.ar    1  UNL1        0.1124
     11 C          63.7652   87.4163   14.4646 C.3     1  UNL1        0.1425
     12 C          63.1380   84.4918   14.6975 C.ar    1  UNL1        0.0567
     13 C          63.5620   83.0707   14.9225 C.ar    1  UNL1        0.0342
     14 C          63.7850   82.1602   13.7515 C.ar    1  UNL1        0.1411
     15 F          64.2090   80.7391   13.9764 F       1  UNL1       -0.2041
     16 C          63.5842   82.6709   12.3555 C.ar    1  UNL1        0.0410
     17 C          63.1602   84.0920   12.1305 C.ar    1  UNL1        0.0601
     18 CL         62.9593   84.6027   10.7345 Cl      1  UNL1       -0.0822
     19 C          62.9372   85.0025   13.3015 C.ar    1  UNL1        0.0161
     20 C          65.2134   92.2859   12.8756 C.ar    1  UNL1        0.1348
     21 C          64.9613   92.3294   11.3976 C.ar    1  UNL1        0.0262
     22 C          65.4521   93.4921   10.5869 C.ar    1  UNL1        0.0329
     23 C          66.1951   94.6113   11.2543 C.ar    1  UNL1        0.1592
     24 F          66.6860   95.7740   10.4437 F       1  UNL1       -0.2025
     25 C          66.4472   94.5677   12.7323 C.ar    1  UNL1        0.1285
     26 N          65.9564   93.4050   13.5430 N.ar    1  UNL1       -0.2368
@<TRIPOS>BOND
     1     1     2    2
     2     2    12    1
     3    12    13   ar
     4    13    14   ar
     5    14    15    1
     6    14    16   ar
     7    16    17   ar
     8    17    18    1
     9    17    19   ar
    10     2     3   am
    11     3     4    1
    12     4     5    1
    13     5     6    1
    14     6     7   ar
    15     7     8   ar
    16     8    20    1
    17    20    21   ar
    18    21    22   ar
    19    22    23   ar
    20    23    24    1
    21    23    25   ar
    22    25    26   ar
    23     8     9   ar
    24     9    10   ar
    25    10    11    1
    26    19    12   ar
    27    11     3    1
    28    10     6   ar
    29    26    20   ar
@<TRIPOS>MOLECULE
*****
 26 29 0 0 0
SMALL
GASTEIGER

@<TRIPOS>ATOM
      1 O          62.4224   86.8467   17.9563 O.2     1  UNL1       -0.2699
      2 C          63.1334   87.0087   16.6455 C.2     1  UNL1        0.2494
      3 N          63.5039   88.3778   16.1574 N.am    1  UNL1       -0.2698
      4 C          63.1634   89.5849   16.9802 C.3     1  UNL1        0.1021
      5 C          63.5339   90.9540   16.4921 C.3     1  UNL1        0.0874
      6 C          64.2449   91.1160   15.1813 C.ar    1  UNL1        0.1415
      7 O          64.7336   92.3299   14.4478 O.2     1  UNL1       -0.4380
      8 C          65.3760   91.8729   13.1717 C.ar    1  UNL1        0.2471
      9 N          65.2845   90.3767   13.1166 N.ar    1  UNL1       -0.2100
     10 C          64.5854   89.9089   14.3585 C.ar    1  UNL1        0.1124
     11 C          64.2149   88.5398   14.8466 C.3     1  UNL1        0.1425
     12 C          63.4738   85.8016   15.8227 C.ar    1  UNL1        0.0567
     13 C          64.8340   85.6757   15.2029 C.ar    1  UNL1        0.0342
     14 C          65.1744   84.4685   14.3801 C.ar    1  UNL1        0.1411
     15 F          66.5345   84.3427   13.7602 F       1  UNL1       -0.2041
     16 C          64.1548   83.3873   14.1772 C.ar    1  UNL1        0.0410
     17 C          62.7947   83.5131   14.7971 C.ar    1  UNL1        0.0601
     18 CL         61.7750   82.4319   14.5943 Cl      1  UNL1       -0.0822
     19 C          62.4542   84.7202   15.6199 C.ar    1  UNL1        0.0161
     20 C          66.0005   92.7569   12.1331 C.ar    1  UNL1        0.1348
     21 C          65.9343   94.2482   12.2795 C.ar    1  UNL1        0.0262
     22 C          66.5587   95.1322   11.2409 C.ar    1  UNL1        0.0329
     23 C          67.2493   94.5248   10.0560 C.ar    1  UNL1        0.1592
     24 F          67.8737   95.4089    9.0173 F       1  UNL1       -0.2025
     25 C          67.3154   93.0335    9.9096 C.ar    1  UNL1        0.1285
     26 N          66.6910   92.1495   10.9481 N.ar    1  UNL1       -0.2368
@<TRIPOS>BOND
     1     1     2    2
     2     2    12    1
     3    12    13   ar
     4    13    14   ar
     5    14    15    1
     6    14    16   ar
     7    16    17   ar
     8    17    18    1
     9    17    19   ar
    10     2     3   am
    11     3     4    1
    12     4     5    1
    13     5     6    1
    14     6     7   ar
    15     7     8   ar
    16     8    20    1
    17    20    21   ar
    18    21    22   ar
    19    22    23   ar
    20    23    24    1
    21    23    25   ar
    22    25    26   ar
    23     8     9   ar
    24     9    10   ar
    25    10    11    1
    26    19    12   ar
    27    11     3    1
    28    10     6   ar
    29    26    20   ar
@<TRIPOS>MOLECULE
*****
 26 29 0 0 0
SMALL
GASTEIGER

@<TRIPOS>ATOM
      1 O          62.3830   84.8855   17.0905 O.2     1  UNL1       -0.2699
      2 C          62.9036   85.4425   15.7988 C.2     1  UNL1        0.2494
      3 N          63.2420   86.9000   15.6927 N.am    1  UNL1       -0.2698
      4 C          63.0598   87.8004   16.8785 C.3     1  UNL1        0.1021
      5 C          63.3983   89.2579   16.7724 C.3     1  UNL1        0.0874
      6 C          63.9189   89.8149   15.4806 C.ar    1  UNL1        0.1415
      7 O          64.3343   91.1993   15.0795 O.2     1  UNL1       -0.4380
      8 C          64.7732   91.1545   13.6459 C.ar    1  UNL1        0.2471
      9 N          64.6291   89.7423   13.1610 N.ar    1  UNL1       -0.2100
     10 C          64.1011   88.9144   14.2949 C.ar    1  UNL1        0.1124
     11 C          63.7627   87.4570   14.4010 C.3     1  UNL1        0.1425
     12 C          63.0858   84.5420   14.6131 C.ar    1  UNL1        0.0567
     13 C          62.9644   85.0965   13.2246 C.ar    1  UNL1        0.0342
     14 C          63.1467   84.1959   12.0388 C.ar    1  UNL1        0.1411
     15 F          63.0253   84.7504   10.6503 F       1  UNL1       -0.2041
     16 C          63.4502   82.7411   12.2416 C.ar    1  UNL1        0.0410
     17 C          63.5716   82.1866   13.6301 C.ar    1  UNL1        0.0601
     18 CL         63.8752   80.7318   13.8328 Cl      1  UNL1       -0.0822
     19 C          63.3894   83.0871   14.8158 C.ar    1  UNL1        0.0161
     20 C          65.2692   92.3175   12.8388 C.ar    1  UNL1        0.1348
     21 C          66.0325   93.4227   13.5066 C.ar    1  UNL1        0.0262
     22 C          66.5285   94.5857   12.6996 C.ar    1  UNL1        0.0329
     23 C          66.2612   94.6436   11.2248 C.ar    1  UNL1        0.1592
     24 F          66.7572   95.8067   10.4177 F       1  UNL1       -0.2025
     25 C          65.4980   93.5384   10.5570 C.ar    1  UNL1        0.1285
     26 N          65.0020   92.3754   11.3640 N.ar    1  UNL1       -0.2368
@<TRIPOS>BOND
     1     1     2    2
     2     2    12    1
     3    12    13   ar
     4    13    14   ar
     5    14    15    1
     6    14    16   ar
     7    16    17   ar
     8    17    18    1
     9    17    19   ar
    10     2     3   am
    11     3     4    1
    12     4     5    1
    13     5     6    1
    14     6     7   ar
    15     7     8   ar
    16     8    20    1
    17    20    21   ar
    18    21    22   ar
    19    22    23   ar
    20    23    24    1
    21    23    25   ar
    22    25    26   ar
    23     8     9   ar
    24     9    10   ar
    25    10    11    1
    26    19    12   ar
    27    11     3    1
    28    10     6   ar
    29    26    20   ar
