@<TRIPOS>MOLECULE
*****
 54 61 0 0 0
SMALL
GASTEIGER

@<TRIPOS>ATOM
      1 C          63.5039   85.2972   15.6575 C.ar    1  UNL1        0.1736
      2 C          63.8815   86.5658   14.9518 C.ar    1  UNL1        0.0548
      3 C          63.4928   86.7705   13.5176 C.ar    1  UNL1        0.0569
      4 C          62.7264   85.7066   12.7891 C.ar    1  UNL1        0.0560
      5 C          62.3487   84.4379   13.4948 C.ar    1  UNL1        0.0445
      6 C          62.7374   84.2333   14.9290 C.ar    1  UNL1        0.1729
      7 C          62.3377   85.9113   11.3549 C.ar    1  UNL1        0.2075
      8 N          62.7374   85.0412   10.2002 N.ar    1  UNL1       -0.1074
      9 N          62.1277   85.6142    8.9552 N.ar    1  UNL1       -0.0406
     10 N          61.3511   86.8383    9.3404 N.ar    1  UNL1       -0.1285
     11 N          61.4808   87.0220   10.8235 N.ar    1  UNL1       -0.1253
     12 C          60.5802   87.7235    8.4065 C.ar    1  UNL1        0.1045
     13 C          60.5790   89.2094    8.6112 C.ar    1  UNL1        0.0206
     14 C          59.8080   90.0946    7.6774 C.ar    1  UNL1       -0.0026
     15 C          59.0383   89.4937    6.5388 C.ar    1  UNL1       -0.0207
     16 C          59.0395   88.0078    6.3341 C.ar    1  UNL1       -0.0026
     17 C          59.8104   87.1226    7.2679 C.ar    1  UNL1        0.0206
     18 C          58.2673   90.3788    5.6048 C.3     1  UNL1        0.0437
     19 C          58.7592   91.7643    5.3072 C.3     1  UNL1        0.0771
     20 N          59.9134   91.9653    4.3706 N.3     1  UNL1       -0.2683
     21 C          61.1936   91.2138    4.5859 C.3     1  UNL1        0.0771
     22 C          62.3479   91.4148    3.6493 C.3     1  UNL1        0.0450
     23 C          62.2219   92.3673    2.4974 C.ar    1  UNL1       -0.0043
     24 C          63.3763   92.5683    1.5608 C.ar    1  UNL1        0.0944
     25 N          63.2504   93.5208    0.4089 N.ar    1  UNL1       -0.2427
     26 C          61.9702   94.2723    0.1936 C.ar    1  UNL1        0.0986
     27 C          60.8158   94.0713    1.1302 C.ar    1  UNL1        0.0175
     28 C          60.9418   93.1188    2.2821 C.ar    1  UNL1       -0.0070
     29 C          59.7875   92.9178    3.2187 C.3     1  UNL1        0.0989
     30 N          63.8704   88.0390   12.8119 N.am    1  UNL1       -0.2777
     31 C          63.8665   89.3412   13.5564 C.2     1  UNL1        0.2843
     32 O          63.4849   89.3748   15.0067 O.2     1  UNL1       -0.2665
     33 H          64.1209   88.0169   11.8600 H       1  UNL1        0.1553
     34 C          64.2442   90.6098   12.8507 C.ar    1  UNL1        0.2017
     35 C          63.7386   90.8755   11.4636 C.ar    1  UNL1        0.0843
     36 C          64.1163   92.1441   10.7579 C.ar    1  UNL1        0.2018
     37 O          63.6107   92.4097    9.3709 O.2     1  UNL1       -0.2864
     38 C          64.9995   93.1470   11.4392 C.ar    1  UNL1        0.0735
     39 C          65.3771   94.4155   10.7334 C.ar    1  UNL1        0.0062
     40 C          66.2604   95.4184   11.4147 C.ar    1  UNL1        0.0003
     41 C          66.7659   95.1528   12.8017 C.ar    1  UNL1        0.0031
     42 C          66.3882   93.8842   13.5074 C.ar    1  UNL1        0.0376
     43 C          65.5050   92.8813   12.8262 C.ar    1  UNL1        0.1485
     44 O          65.1274   91.6127   13.5320 O.2     1  UNL1       -0.4487
     45 C          63.2851   85.9489   18.1630 C.3     1  UNL1        0.2526
     46 O          63.8926   85.0925   17.0918 O.3     1  UNL1       -0.4683
     47 O          62.3598   82.9647   15.6348 O.3     1  UNL1       -0.4676
     48 C          62.7070   81.6373   15.0286 C.3     1  UNL1        0.2321
     49 C          63.0727   81.5486   13.5765 C.ar    1  UNL1        0.0212
     50 C          62.2862   80.6611   12.6579 C.ar    1  UNL1       -0.0007
     51 C          62.6519   80.5723   11.2059 C.ar    1  UNL1       -0.0002
     52 C          63.8041   81.3710   10.6724 C.ar    1  UNL1       -0.0000
     53 C          64.5906   82.2585   11.5910 C.ar    1  UNL1       -0.0002
     54 C          64.2249   82.3472   13.0431 C.ar    1  UNL1       -0.0007
@<TRIPOS>BOND
     1    45    46    1
     2    46     1    1
     3     1     2   ar
     4     2     3   ar
     5     3    30    1
     6    30    31   am
     7    31    32    2
     8    31    34    1
     9    34    35   ar
    10    35    36   ar
    11    36    37    2
    12    36    38   ar
    13    38    39   ar
    14    39    40   ar
    15    40    41   ar
    16    41    42   ar
    17    42    43   ar
    18    43    44   ar
    19     3     4   ar
    20     4     7    1
    21     7     8   ar
    22     8     9   ar
    23     9    10   ar
    24    10    12    1
    25    12    13   ar
    26    13    14   ar
    27    14    15   ar
    28    15    18    1
    29    18    19    1
    30    19    20    1
    31    20    21    1
    32    21    22    1
    33    22    23    1
    34    23    24   ar
    35    24    25   ar
    36    25    26   ar
    37    26    27   ar
    38    27    28   ar
    39    28    29    1
    40    15    16   ar
    41    16    17   ar
    42    10    11   ar
    43     4     5   ar
    44     5     6   ar
    45     6    47    1
    46    47    48    1
    47    48    49    1
    48    49    50   ar
    49    50    51   ar
    50    51    52   ar
    51    52    53   ar
    52    53    54   ar
    53     6     1   ar
    54    54    49   ar
    55    44    34   ar
    56    11     7   ar
    57    43    38   ar
    58    17    12   ar
    59    29    20    1
    60    28    23   ar
    61    30    33    1
@<TRIPOS>MOLECULE
*****
 54 61 0 0 0
SMALL
GASTEIGER

@<TRIPOS>ATOM
      1 C          64.9028   90.3549   14.2557 C.ar    1  UNL1        0.1736
      2 C          64.5245   88.9215   14.0269 C.ar    1  UNL1        0.0548
      3 C          63.6213   88.5571   12.8862 C.ar    1  UNL1        0.0569
      4 C          63.0963   89.6260   11.9742 C.ar    1  UNL1        0.0560
      5 C          63.4746   91.0594   12.2029 C.ar    1  UNL1        0.0445
      6 C          64.3778   91.4239   13.3437 C.ar    1  UNL1        0.1729
      7 C          62.1931   89.2615   10.8334 C.ar    1  UNL1        0.2075
      8 N          61.5168   87.9378   10.6325 N.ar    1  UNL1       -0.1074
      9 N          60.7132   88.0150    9.3682 N.ar    1  UNL1       -0.0406
     10 N          60.8929   89.3864    8.7878 N.ar    1  UNL1       -0.1285
     11 N          61.8075   90.1569    9.6933 N.ar    1  UNL1       -0.1253
     12 C          60.2678   89.8977    7.5237 C.ar    1  UNL1        0.1045
     13 C          58.7889   89.7646    7.3112 C.ar    1  UNL1        0.0206
     14 C          58.1638   90.2759    6.0472 C.ar    1  UNL1       -0.0026
     15 C          59.0176   90.9203    4.9956 C.ar    1  UNL1       -0.0207
     16 C          60.4965   91.0534    5.2082 C.ar    1  UNL1       -0.0026
     17 C          61.1216   90.5422    6.4722 C.ar    1  UNL1        0.0206
     18 C          58.3926   91.4316    3.7315 C.3     1  UNL1        0.0437
     19 C          58.7304   92.8044    3.2299 C.3     1  UNL1        0.0771
     20 N          59.7213   92.9732    2.1166 N.3     1  UNL1       -0.2683
     21 C          59.2449   93.0795    0.6983 C.3     1  UNL1        0.0771
     22 C          60.2359   93.2484   -0.4151 C.3     1  UNL1        0.0450
     23 C          61.7032   93.3110   -0.1100 C.ar    1  UNL1       -0.0043
     24 C          62.6941   93.4799   -1.2235 C.ar    1  UNL1        0.0944
     25 N          64.1614   93.5426   -0.9185 N.ar    1  UNL1       -0.2427
     26 C          64.6378   93.4364    0.4999 C.ar    1  UNL1        0.0986
     27 C          63.6469   93.2675    1.6133 C.ar    1  UNL1        0.0175
     28 C          62.1796   93.2048    1.3083 C.ar    1  UNL1       -0.0070
     29 C          61.1887   93.0359    2.4216 C.3     1  UNL1        0.0989
     30 N          63.2430   87.1237   12.6574 N.am    1  UNL1       -0.2777
     31 C          63.8487   86.0439   13.5043 C.2     1  UNL1        0.2843
     32 O          64.8326   86.3974   14.5798 O.2     1  UNL1       -0.2665
     33 H          62.5972   86.8917   11.9515 H       1  UNL1        0.1553
     34 C          63.4704   84.6105   13.2755 C.ar    1  UNL1        0.2017
     35 C          62.8053   83.8268   14.3680 C.ar    1  UNL1        0.0843
     36 C          62.4270   82.3934   14.1393 C.ar    1  UNL1        0.2018
     37 O          61.7620   81.6098   15.2318 O.2     1  UNL1       -0.2864
     38 C          62.7138   81.7437   12.8181 C.ar    1  UNL1        0.0735
     39 C          62.3355   80.3104   12.5893 C.ar    1  UNL1        0.0062
     40 C          62.6223   79.6607   11.2681 C.ar    1  UNL1        0.0003
     41 C          63.2874   80.4443   10.1756 C.ar    1  UNL1        0.0031
     42 C          63.6657   81.8777   10.4044 C.ar    1  UNL1        0.0376
     43 C          63.3789   82.5274   11.7256 C.ar    1  UNL1        0.1485
     44 O          63.7572   83.9608   11.9543 O.2     1  UNL1       -0.4487
     45 C          67.2186   91.1464   15.1277 C.3     1  UNL1        0.2526
     46 O          65.8061   90.7193   15.3964 O.3     1  UNL1       -0.4683
     47 O          64.7561   92.8572   13.5724 O.3     1  UNL1       -0.4676
     48 C          66.1549   93.3183   13.2881 C.3     1  UNL1        0.2321
     49 C          66.5984   93.5397   11.8723 C.ar    1  UNL1        0.0212
     50 C          66.3844   94.8730   11.2192 C.ar    1  UNL1       -0.0007
     51 C          66.8279   95.0945    9.8035 C.ar    1  UNL1       -0.0002
     52 C          67.4854   93.9826    9.0408 C.ar    1  UNL1       -0.0000
     53 C          67.6993   92.6493    9.6939 C.ar    1  UNL1       -0.0002
     54 C          67.2558   92.4279   11.1097 C.ar    1  UNL1       -0.0007
@<TRIPOS>BOND
     1    45    46    1
     2    46     1    1
     3     1     2   ar
     4     2     3   ar
     5     3    30    1
     6    30    31   am
     7    31    32    2
     8    31    34    1
     9    34    35   ar
    10    35    36   ar
    11    36    37    2
    12    36    38   ar
    13    38    39   ar
    14    39    40   ar
    15    40    41   ar
    16    41    42   ar
    17    42    43   ar
    18    43    44   ar
    19     3     4   ar
    20     4     7    1
    21     7     8   ar
    22     8     9   ar
    23     9    10   ar
    24    10    12    1
    25    12    13   ar
    26    13    14   ar
    27    14    15   ar
    28    15    18    1
    29    18    19    1
    30    19    20    1
    31    20    21    1
    32    21    22    1
    33    22    23    1
    34    23    24   ar
    35    24    25   ar
    36    25    26   ar
    37    26    27   ar
    38    27    28   ar
    39    28    29    1
    40    15    16   ar
    41    16    17   ar
    42    10    11   ar
    43     4     5   ar
    44     5     6   ar
    45     6    47    1
    46    47    48    1
    47    48    49    1
    48    49    50   ar
    49    50    51   ar
    50    51    52   ar
    51    52    53   ar
    52    53    54   ar
    53     6     1   ar
    54    54    49   ar
    55    44    34   ar
    56    11     7   ar
    57    43    38   ar
    58    17    12   ar
    59    29    20    1
    60    28    23   ar
    61    30    33    1
@<TRIPOS>MOLECULE
*****
 54 61 0 0 0
SMALL
GASTEIGER

@<TRIPOS>ATOM
      1 C          64.9349   90.3763   14.2556 C.ar    1  UNL1        0.1736
      2 C          64.5526   88.9446   14.0234 C.ar    1  UNL1        0.0548
      3 C          63.6477   88.5856   12.8823 C.ar    1  UNL1        0.0569
      4 C          63.1250   89.6582   11.9734 C.ar    1  UNL1        0.0560
      5 C          63.5073   91.0901   12.2056 C.ar    1  UNL1        0.0445
      6 C          64.4122   91.4491   13.3467 C.ar    1  UNL1        0.1729
      7 C          62.2201   89.2992   10.8322 C.ar    1  UNL1        0.2075
      8 N          61.5266   87.9835   10.6372 N.ar    1  UNL1       -0.1074
      9 N          60.7277   88.0640    9.3702 N.ar    1  UNL1       -0.0406
     10 N          60.9274   89.4294    8.7821 N.ar    1  UNL1       -0.1285
     11 N          61.8498   90.1928    9.6857 N.ar    1  UNL1       -0.1253
     12 C          60.3128   89.9415    7.5133 C.ar    1  UNL1        0.1045
     13 C          61.1735   90.5964    6.4740 C.ar    1  UNL1        0.0206
     14 C          60.5589   91.1085    5.2052 C.ar    1  UNL1       -0.0026
     15 C          59.0834   90.9657    4.9757 C.ar    1  UNL1       -0.0207
     16 C          58.2227   90.3108    6.0150 C.ar    1  UNL1       -0.0026
     17 C          58.8373   89.7986    7.2838 C.ar    1  UNL1        0.0206
     18 C          58.4686   91.4778    3.7069 C.3     1  UNL1        0.0437
     19 C          58.8582   92.8253    3.1754 C.3     1  UNL1        0.0771
     20 N          59.7315   92.9285    1.9603 N.3     1  UNL1       -0.2683
     21 C          61.2153   92.7476    2.0856 C.3     1  UNL1        0.0771
     22 C          62.0886   92.8508    0.8704 C.3     1  UNL1        0.0450
     23 C          61.4782   93.1349   -0.4700 C.ar    1  UNL1       -0.0043
     24 C          62.3517   93.2380   -1.6851 C.ar    1  UNL1        0.0944
     25 N          61.7413   93.5221   -3.0255 N.ar    1  UNL1       -0.2427
     26 C          60.2576   93.7030   -3.1508 C.ar    1  UNL1        0.0986
     27 C          59.3841   93.5999   -1.9356 C.ar    1  UNL1        0.0175
     28 C          59.9945   93.3158   -0.5953 C.ar    1  UNL1       -0.0070
     29 C          59.1211   93.2126    0.6199 C.3     1  UNL1        0.0989
     30 N          63.2654   87.1538   12.6500 N.am    1  UNL1       -0.2777
     31 C          63.8605   86.0711   13.5008 C.2     1  UNL1        0.2843
     32 O          64.8379   86.4203   14.5838 O.2     1  UNL1       -0.2665
     33 H          62.6239   86.9247   11.9392 H       1  UNL1        0.1553
     34 C          63.4782   84.6394   13.2685 C.ar    1  UNL1        0.2017
     35 C          62.7908   83.8615   14.3514 C.ar    1  UNL1        0.0843
     36 C          62.4086   82.4298   14.1191 C.ar    1  UNL1        0.2018
     37 O          61.7212   81.6520   15.2020 O.2     1  UNL1       -0.2864
     38 C          62.7136   81.7759   12.8041 C.ar    1  UNL1        0.0735
     39 C          62.3314   80.3442   12.5719 C.ar    1  UNL1        0.0062
     40 C          62.6364   79.6903   11.2568 C.ar    1  UNL1        0.0003
     41 C          63.3238   80.4681   10.1740 C.ar    1  UNL1        0.0031
     42 C          63.7061   81.8998   10.4063 C.ar    1  UNL1        0.0376
     43 C          63.4010   82.5537   11.7213 C.ar    1  UNL1        0.1485
     44 O          63.7833   83.9855   11.9535 O.2     1  UNL1       -0.4487
     45 C          67.2553   91.1528   15.1288 C.3     1  UNL1        0.2526
     46 O          65.8398   90.7354   15.3968 O.3     1  UNL1       -0.4683
     47 O          64.7945   92.8808   13.5790 O.3     1  UNL1       -0.4676
     48 C          66.1885   93.3437   13.2748 C.3     1  UNL1        0.2321
     49 C          66.6203   93.5383   11.8515 C.ar    1  UNL1        0.0212
     50 C          66.3855   94.8537   11.1697 C.ar    1  UNL1       -0.0007
     51 C          66.8174   95.0484    9.7465 C.ar    1  UNL1       -0.0002
     52 C          67.4840   93.9277    9.0050 C.ar    1  UNL1       -0.0000
     53 C          67.7188   92.6124    9.6867 C.ar    1  UNL1       -0.0002
     54 C          67.2869   92.4177   11.1100 C.ar    1  UNL1       -0.0007
@<TRIPOS>BOND
     1    45    46    1
     2    46     1    1
     3     1     2   ar
     4     2     3   ar
     5     3    30    1
     6    30    31   am
     7    31    32    2
     8    31    34    1
     9    34    35   ar
    10    35    36   ar
    11    36    37    2
    12    36    38   ar
    13    38    39   ar
    14    39    40   ar
    15    40    41   ar
    16    41    42   ar
    17    42    43   ar
    18    43    44   ar
    19     3     4   ar
    20     4     7    1
    21     7     8   ar
    22     8     9   ar
    23     9    10   ar
    24    10    12    1
    25    12    13   ar
    26    13    14   ar
    27    14    15   ar
    28    15    18    1
    29    18    19    1
    30    19    20    1
    31    20    21    1
    32    21    22    1
    33    22    23    1
    34    23    24   ar
    35    24    25   ar
    36    25    26   ar
    37    26    27   ar
    38    27    28   ar
    39    28    29    1
    40    15    16   ar
    41    16    17   ar
    42    10    11   ar
    43     4     5   ar
    44     5     6   ar
    45     6    47    1
    46    47    48    1
    47    48    49    1
    48    49    50   ar
    49    50    51   ar
    50    51    52   ar
    51    52    53   ar
    52    53    54   ar
    53     6     1   ar
    54    54    49   ar
    55    44    34   ar
    56    11     7   ar
    57    43    38   ar
    58    17    12   ar
    59    29    20    1
    60    28    23   ar
    61    30    33    1
@<TRIPOS>MOLECULE
*****
 54 61 0 0 0
SMALL
GASTEIGER

@<TRIPOS>ATOM
      1 C          63.7670   83.7402   14.6059 C.ar    1  UNL1        0.1736
      2 C          64.3444   85.0937   14.3152 C.ar    1  UNL1        0.0548
      3 C          63.5339   86.1097   13.5663 C.ar    1  UNL1        0.0569
      4 C          62.1461   85.7722   13.1081 C.ar    1  UNL1        0.0560
      5 C          61.5686   84.4186   13.3988 C.ar    1  UNL1        0.0445
      6 C          62.3791   83.4026   14.1477 C.ar    1  UNL1        0.1729
      7 C          61.3356   86.7882   12.3592 C.ar    1  UNL1        0.2075
      8 N          60.4203   87.8087   12.9681 N.ar    1  UNL1       -0.1074
      9 N          59.8171   88.6133   11.8551 N.ar    1  UNL1       -0.0406
     10 N          60.3596   88.0901   10.5582 N.ar    1  UNL1       -0.1285
     11 N          61.2981   86.9621   10.8697 N.ar    1  UNL1       -0.1253
     12 C          60.0228   88.6044    9.1900 C.ar    1  UNL1        0.1045
     13 C          59.3125   87.7188    8.2097 C.ar    1  UNL1        0.0206
     14 C          58.9757   88.2332    6.8415 C.ar    1  UNL1       -0.0026
     15 C          59.3492   89.6332    6.4537 C.ar    1  UNL1       -0.0207
     16 C          60.0595   90.5188    7.4340 C.ar    1  UNL1       -0.0026
     17 C          60.3963   90.0045    8.8022 C.ar    1  UNL1        0.0206
     18 C          59.0125   90.1477    5.0855 C.3     1  UNL1        0.0437
     19 C          59.2438   91.5912    4.7492 C.3     1  UNL1        0.0771
     20 N          60.4019   91.9825    3.8800 N.3     1  UNL1       -0.2683
     21 C          61.7153   91.2707    4.0154 C.3     1  UNL1        0.0771
     22 C          62.8735   91.6621    3.1462 C.3     1  UNL1        0.0450
     23 C          62.7183   92.7652    2.1416 C.ar    1  UNL1       -0.0043
     24 C          63.8765   93.1564    1.2725 C.ar    1  UNL1        0.0944
     25 N          63.7213   94.2595    0.2679 N.ar    1  UNL1       -0.2427
     26 C          62.4079   94.9713    0.1326 C.ar    1  UNL1        0.0986
     27 C          61.2496   94.5799    1.0018 C.ar    1  UNL1        0.0175
     28 C          61.4049   93.4769    2.0063 C.ar    1  UNL1       -0.0070
     29 C          60.2467   93.0856    2.8754 C.3     1  UNL1        0.0989
     30 N          64.1112   87.4633   13.2755 N.am    1  UNL1       -0.2777
     31 C          64.0198   88.5538   14.3015 C.2     1  UNL1        0.2843
     32 O          63.3510   88.2907   15.6181 O.2     1  UNL1       -0.2665
     33 H          64.5502   87.6359   12.4114 H       1  UNL1        0.1553
     34 C          64.5971   89.9073   14.0107 C.ar    1  UNL1        0.2017
     35 C          65.2771   90.6825   15.1002 C.ar    1  UNL1        0.0843
     36 C          65.8544   92.0361   14.8095 C.ar    1  UNL1        0.2018
     37 O          66.5343   92.8112   15.8989 O.2     1  UNL1       -0.2864
     38 C          65.7519   92.6145   13.4293 C.ar    1  UNL1        0.0735
     39 C          66.3292   93.9680   13.1386 C.ar    1  UNL1        0.0062
     40 C          66.2267   94.5465   11.7584 C.ar    1  UNL1        0.0003
     41 C          65.5468   93.7714   10.6689 C.ar    1  UNL1        0.0031
     42 C          64.9695   92.4178   10.9597 C.ar    1  UNL1        0.0376
     43 C          65.0720   91.8394   12.3399 C.ar    1  UNL1        0.1485
     44 O          64.4946   90.4858   12.6306 O.2     1  UNL1       -0.4487
     45 C          65.2543   81.6100   14.6130 C.3     1  UNL1        0.2526
     46 O          64.5775   82.7242   15.3549 O.3     1  UNL1       -0.4683
     47 O          61.8018   82.0491   14.4385 O.3     1  UNL1       -0.4676
     48 C          62.5356   80.8130   14.0101 C.3     1  UNL1        0.2321
     49 C          62.6998   80.5059   12.5510 C.ar    1  UNL1        0.0212
     50 C          63.0680   81.5985   11.5915 C.ar    1  UNL1       -0.0007
     51 C          63.2323   81.2916   10.1325 C.ar    1  UNL1       -0.0002
     52 C          63.0283   79.8919    9.6329 C.ar    1  UNL1       -0.0000
     53 C          62.6600   78.7993   10.5925 C.ar    1  UNL1       -0.0002
     54 C          62.4958   79.1064   12.0515 C.ar    1  UNL1       -0.0007
@<TRIPOS>BOND
     1    45    46    1
     2    46     1    1
     3     1     2   ar
     4     2     3   ar
     5     3    30    1
     6    30    31   am
     7    31    32    2
     8    31    34    1
     9    34    35   ar
    10    35    36   ar
    11    36    37    2
    12    36    38   ar
    13    38    39   ar
    14    39    40   ar
    15    40    41   ar
    16    41    42   ar
    17    42    43   ar
    18    43    44   ar
    19     3     4   ar
    20     4     7    1
    21     7     8   ar
    22     8     9   ar
    23     9    10   ar
    24    10    12    1
    25    12    13   ar
    26    13    14   ar
    27    14    15   ar
    28    15    18    1
    29    18    19    1
    30    19    20    1
    31    20    21    1
    32    21    22    1
    33    22    23    1
    34    23    24   ar
    35    24    25   ar
    36    25    26   ar
    37    26    27   ar
    38    27    28   ar
    39    28    29    1
    40    15    16   ar
    41    16    17   ar
    42    10    11   ar
    43     4     5   ar
    44     5     6   ar
    45     6    47    1
    46    47    48    1
    47    48    49    1
    48    49    50   ar
    49    50    51   ar
    50    51    52   ar
    51    52    53   ar
    52    53    54   ar
    53     6     1   ar
    54    54    49   ar
    55    44    34   ar
    56    11     7   ar
    57    43    38   ar
    58    17    12   ar
    59    29    20    1
    60    28    23   ar
    61    30    33    1
