@<TRIPOS>MOLECULE
*****
 33 36 0 0 0
SMALL
GASTEIGER

@<TRIPOS>ATOM
      1 N          60.8565   89.0356   11.1391 N.am    1  UNL1       -0.2533
      2 C          62.1347   89.6973   11.5609 C.2     1  UNL1        0.3092
      3 O          63.1052   90.1830   10.5253 O.2     1  UNL1       -0.2521
      4 N          62.4427   89.8736   13.0183 N.am    1  UNL1       -0.2680
      5 H          60.2195   88.7169   11.8188 H       1  UNL1        0.1578
      6 H          61.8058   89.5549   13.6981 H       1  UNL1        0.1564
      7 C          63.7210   90.5354   13.4401 C.ar    1  UNL1        0.0517
      8 C          64.3108   91.6304   12.6016 C.ar    1  UNL1        0.0163
      9 C          65.5892   92.2921   13.0234 C.ar    1  UNL1        0.0205
     10 C          66.2777   91.8590   14.2836 C.ar    1  UNL1        0.0863
     11 C          65.6878   90.7641   15.1221 C.ar    1  UNL1        0.0205
     12 C          64.4095   90.1023   14.7004 C.ar    1  UNL1        0.0163
     13 N          67.5560   92.5208   14.7054 N.ar    1  UNL1       -0.1886
     14 C          67.7312   93.4276   15.8874 C.ar    1  UNL1        0.2258
     15 N          69.1670   93.8592   15.9318 N.ar    1  UNL1       -0.1045
     16 N          69.8793   93.2192   14.7772 N.ar    1  UNL1       -0.0222
     17 N          68.8836   92.3920   14.0192 N.ar    1  UNL1       -0.0385
     18 N          60.9319   87.6815    8.8356 N.ar    1  UNL1       -0.2162
     19 N          60.4234   87.9243    7.4455 N.ar    1  UNL1       -0.1683
     20 C          59.7258   89.2521    7.4323 C.ar    1  UNL1        0.0810
     21 C          59.8031   89.8300    8.8144 C.ar    1  UNL1        0.0509
     22 C          60.5485   88.8593    9.6816 C.ar    1  UNL1        0.1380
     23 C          63.9666   82.8480   10.6871 C.3     1  UNL1        0.0310
     24 C          63.2079   84.0564   10.2242 C.ar    1  UNL1       -0.0218
     25 C          63.3588   84.5416    8.8129 C.ar    1  UNL1       -0.0027
     26 C          62.6002   85.7499    8.3500 C.ar    1  UNL1        0.0189
     27 C          61.6906   86.4732    9.2985 C.ar    1  UNL1        0.0842
     28 C          61.5397   85.9880   10.7098 C.ar    1  UNL1        0.0189
     29 C          62.2984   84.7796   11.1726 C.ar    1  UNL1       -0.0027
     30 C          59.0666   89.8900    6.2455 C.3     1  UNL1        0.0372
     31 C          57.7553   89.2825    6.6474 C.3     1  UNL1        0.0060
     32 C          60.3779   90.4974    5.8436 C.3     1  UNL1        0.0060
     33 C          58.4074   90.5278    5.0587 C.3     1  UNL1        0.0060
@<TRIPOS>BOND
     1    23    24    1
     2    24    25   ar
     3    25    26   ar
     4    26    27   ar
     5    27    18    1
     6    18    19   ar
     7    19    20   ar
     8    20    30    1
     9    30    31    1
    10    30    32    1
    11    30    33    1
    12    20    21   ar
    13    21    22   ar
    14    22     1    1
    15     1     2   am
    16     2     3    2
    17     2     4   am
    18     4     7    1
    19     7     8   ar
    20     8     9   ar
    21     9    10   ar
    22    10    13    1
    23    13    14   ar
    24    14    15   ar
    25    15    16   ar
    26    16    17   ar
    27    10    11   ar
    28    11    12   ar
    29    27    28   ar
    30    28    29   ar
    31    29    24   ar
    32    22    18   ar
    33    12     7   ar
    34    17    13   ar
    35     1     5    1
    36     4     6    1
@<TRIPOS>MOLECULE
*****
 33 36 0 0 0
SMALL
GASTEIGER

@<TRIPOS>ATOM
      1 N          60.1814   94.4640    0.6739 N.am    1  UNL1       -0.2533
      2 C          60.0897   93.3271    1.6480 C.2     1  UNL1        0.3092
      3 O          60.3506   91.9231    1.1889 O.2     1  UNL1       -0.2521
      4 N          59.7371   93.5941    3.0814 N.am    1  UNL1       -0.2680
      5 H          60.0102   95.3855    0.9753 H       1  UNL1        0.1578
      6 H          59.5659   94.5155    3.3828 H       1  UNL1        0.1564
      7 C          59.6455   92.4571    4.0555 C.ar    1  UNL1        0.0517
      8 C          60.8860   91.7229    4.4702 C.ar    1  UNL1        0.0163
      9 C          60.7943   90.5860    5.4443 C.ar    1  UNL1        0.0205
     10 C          59.4622   90.1831    6.0037 C.ar    1  UNL1        0.0863
     11 C          58.2216   90.9173    5.5890 C.ar    1  UNL1        0.0205
     12 C          58.3133   92.0543    4.6149 C.ar    1  UNL1        0.0163
     13 N          59.3705   89.0462    6.9778 N.ar    1  UNL1       -0.1886
     14 C          60.0271   88.9842    8.3251 C.ar    1  UNL1        0.2258
     15 N          59.6685   87.6713    8.9556 N.ar    1  UNL1       -0.1045
     16 N          58.7903   86.9218    7.9981 N.ar    1  UNL1       -0.0222
     17 N          58.6060   87.7715    6.7757 N.ar    1  UNL1       -0.0385
     18 N          59.5839   94.2195   -1.9200 N.ar    1  UNL1       -0.2162
     19 N          60.3613   93.8971   -3.1616 N.ar    1  UNL1       -0.1683
     20 C          61.7918   93.6754   -2.7684 C.ar    1  UNL1        0.0810
     21 C          61.8985   93.8607   -1.2838 C.ar    1  UNL1        0.0509
     22 C          60.5340   94.1970   -0.7594 C.ar    1  UNL1        0.1380
     23 C          53.7063   95.3930   -1.6441 C.3     1  UNL1        0.0310
     24 C          55.1757   95.0996   -1.7130 C.ar    1  UNL1       -0.0218
     25 C          56.1711   96.2039   -1.5138 C.ar    1  UNL1       -0.0027
     26 C          57.6405   95.9105   -1.5828 C.ar    1  UNL1        0.0189
     27 C          58.1145   94.5129   -1.8510 C.ar    1  UNL1        0.0842
     28 C          57.1191   93.4086   -2.0502 C.ar    1  UNL1        0.0189
     29 C          55.6497   93.7020   -1.9812 C.ar    1  UNL1       -0.0027
     30 C          62.9179   93.3291   -3.6969 C.3     1  UNL1        0.0372
     31 C          62.1692   93.9525   -4.8374 C.3     1  UNL1        0.0060
     32 C          63.6665   92.7056   -2.5564 C.3     1  UNL1        0.0060
     33 C          64.0439   92.9828   -4.6254 C.3     1  UNL1        0.0060
@<TRIPOS>BOND
     1    23    24    1
     2    24    25   ar
     3    25    26   ar
     4    26    27   ar
     5    27    18    1
     6    18    19   ar
     7    19    20   ar
     8    20    30    1
     9    30    31    1
    10    30    32    1
    11    30    33    1
    12    20    21   ar
    13    21    22   ar
    14    22     1    1
    15     1     2   am
    16     2     3    2
    17     2     4   am
    18     4     7    1
    19     7     8   ar
    20     8     9   ar
    21     9    10   ar
    22    10    13    1
    23    13    14   ar
    24    14    15   ar
    25    15    16   ar
    26    16    17   ar
    27    10    11   ar
    28    11    12   ar
    29    27    28   ar
    30    28    29   ar
    31    29    24   ar
    32    22    18   ar
    33    12     7   ar
    34    17    13   ar
    35     1     5    1
    36     4     6    1
@<TRIPOS>MOLECULE
*****
 33 36 0 0 0
SMALL
GASTEIGER

@<TRIPOS>ATOM
      1 N          63.5593   88.3962   15.0726 N.am    1  UNL1       -0.2533
      2 C          63.5241   87.1431   14.2491 C.2     1  UNL1        0.3092
      3 O          63.9796   87.1716   12.8201 O.2     1  UNL1       -0.2521
      4 N          63.0333   85.8613   14.8542 N.am    1  UNL1       -0.2680
      5 H          63.2604   88.3774   16.0105 H       1  UNL1        0.1578
      6 H          62.7343   85.8425   15.7921 H       1  UNL1        0.1564
      7 C          62.9981   84.6082   14.0306 C.ar    1  UNL1        0.0517
      8 C          63.1664   83.2718   14.6907 C.ar    1  UNL1        0.0163
      9 C          63.1312   82.0187   13.8670 C.ar    1  UNL1        0.0205
     10 C          62.9277   82.1019   12.3832 C.ar    1  UNL1        0.0863
     11 C          62.7594   83.4383   11.7231 C.ar    1  UNL1        0.0205
     12 C          62.7946   84.6914   12.5468 C.ar    1  UNL1        0.0163
     13 N          62.8924   80.8488   11.5596 N.ar    1  UNL1       -0.1886
     14 C          63.1538   80.7549   10.0855 C.ar    1  UNL1        0.2258
     15 N          63.0125   79.3177    9.6802 N.ar    1  UNL1       -0.1045
     16 N          62.6639   78.5232   10.9038 N.ar    1  UNL1       -0.0222
     17 N          62.5897   79.4695   12.0654 N.ar    1  UNL1       -0.0385
     18 N          63.5727   90.2855   13.1818 N.ar    1  UNL1       -0.2162
     19 N          64.3320   91.5602   12.9615 N.ar    1  UNL1       -0.1683
     20 C          65.2787   91.7405   14.1110 C.ar    1  UNL1        0.0810
     21 C          65.1044   90.5772   15.0418 C.ar    1  UNL1        0.0509
     22 C          64.0501   89.6779   14.4675 C.ar    1  UNL1        0.1380
     23 C          59.3649   88.0154    9.5568 C.3     1  UNL1        0.0310
     24 C          60.4169   88.5829   10.4630 C.ar    1  UNL1       -0.0218
     25 C          60.0323   89.1421   11.8007 C.ar    1  UNL1       -0.0027
     26 C          61.0842   89.7096   12.7070 C.ar    1  UNL1        0.0189
     27 C          62.5208   89.7180   12.2755 C.ar    1  UNL1        0.0842
     28 C          62.9054   89.1589   10.9379 C.ar    1  UNL1        0.0189
     29 C          61.8534   88.5913   10.0316 C.ar    1  UNL1       -0.0027
     30 C          66.2321   92.8834   14.2971 C.3     1  UNL1        0.0372
     31 C          66.3103   92.5794   15.7639 C.3     1  UNL1        0.0060
     32 C          66.1540   93.1874   12.8303 C.3     1  UNL1        0.0060
     33 C          67.1856   94.0263   14.4832 C.3     1  UNL1        0.0060
@<TRIPOS>BOND
     1    23    24    1
     2    24    25   ar
     3    25    26   ar
     4    26    27   ar
     5    27    18    1
     6    18    19   ar
     7    19    20   ar
     8    20    30    1
     9    30    31    1
    10    30    32    1
    11    30    33    1
    12    20    21   ar
    13    21    22   ar
    14    22     1    1
    15     1     2   am
    16     2     3    2
    17     2     4   am
    18     4     7    1
    19     7     8   ar
    20     8     9   ar
    21     9    10   ar
    22    10    13    1
    23    13    14   ar
    24    14    15   ar
    25    15    16   ar
    26    16    17   ar
    27    10    11   ar
    28    11    12   ar
    29    27    28   ar
    30    28    29   ar
    31    29    24   ar
    32    22    18   ar
    33    12     7   ar
    34    17    13   ar
    35     1     5    1
    36     4     6    1
@<TRIPOS>MOLECULE
*****
 33 36 0 0 0
SMALL
GASTEIGER

@<TRIPOS>ATOM
      1 N          61.7178   88.1599   12.1635 N.am    1  UNL1       -0.2533
      2 C          62.9141   88.8718   12.7220 C.2     1  UNL1        0.3092
      3 O          64.2508   88.1913   12.7404 O.2     1  UNL1       -0.2521
      4 N          62.7739   90.2641   13.2621 N.am    1  UNL1       -0.2680
      5 H          60.8405   88.6066   12.1514 H       1  UNL1        0.1578
      6 H          61.8966   90.7108   13.2500 H       1  UNL1        0.1564
      7 C          63.9703   90.9759   13.8206 C.ar    1  UNL1        0.0517
      8 C          64.1638   91.0662   15.3053 C.ar    1  UNL1        0.0163
      9 C          65.3602   91.7780   15.8638 C.ar    1  UNL1        0.0205
     10 C          66.3631   92.3996   14.9377 C.ar    1  UNL1        0.0863
     11 C          66.1696   92.3094   13.4530 C.ar    1  UNL1        0.0205
     12 C          64.9732   91.5975   12.8945 C.ar    1  UNL1        0.0163
     13 N          67.5595   93.1114   15.4962 N.ar    1  UNL1       -0.1886
     14 C          68.7524   92.4636   16.1345 C.ar    1  UNL1        0.2258
     15 N          69.7032   93.5479   16.5473 N.ar    1  UNL1       -0.1045
     16 N          69.0980   94.8657   16.1641 N.ar    1  UNL1       -0.0222
     17 N          67.7730   94.5960   15.5145 N.ar    1  UNL1       -0.0385
     18 N          61.3933   86.2926   10.2786 N.ar    1  UNL1       -0.2162
     19 N          61.7357   84.8373   10.1573 N.ar    1  UNL1       -0.1683
     20 C          62.4119   84.4128   11.4272 C.ar    1  UNL1        0.0810
     21 C          62.4875   85.6058   12.3332 C.ar    1  UNL1        0.0509
     22 C          61.8580   86.7676   11.6234 C.ar    1  UNL1        0.1380
     23 C          58.6474   89.6285    6.1154 C.3     1  UNL1        0.0310
     24 C          59.3339   88.7945    7.1562 C.ar    1  UNL1       -0.0218
     25 C          60.1221   89.4562    8.2474 C.ar    1  UNL1       -0.0027
     26 C          60.8086   88.6223    9.2882 C.ar    1  UNL1        0.0189
     27 C          60.7069   87.1266    9.2378 C.ar    1  UNL1        0.0842
     28 C          59.9187   86.4649    8.1465 C.ar    1  UNL1        0.0189
     29 C          59.2322   87.2989    7.1057 C.ar    1  UNL1       -0.0027
     30 C          62.9228   83.0368   11.7366 C.3     1  UNL1        0.0372
     31 C          62.3992   83.1573   13.1370 C.3     1  UNL1        0.0060
     32 C          63.4465   82.9164   10.3362 C.3     1  UNL1        0.0060
     33 C          63.4338   81.6609   12.0460 C.3     1  UNL1        0.0060
@<TRIPOS>BOND
     1    23    24    1
     2    24    25   ar
     3    25    26   ar
     4    26    27   ar
     5    27    18    1
     6    18    19   ar
     7    19    20   ar
     8    20    30    1
     9    30    31    1
    10    30    32    1
    11    30    33    1
    12    20    21   ar
    13    21    22   ar
    14    22     1    1
    15     1     2   am
    16     2     3    2
    17     2     4   am
    18     4     7    1
    19     7     8   ar
    20     8     9   ar
    21     9    10   ar
    22    10    13    1
    23    13    14   ar
    24    14    15   ar
    25    15    16   ar
    26    16    17   ar
    27    10    11   ar
    28    11    12   ar
    29    27    28   ar
    30    28    29   ar
    31    29    24   ar
    32    22    18   ar
    33    12     7   ar
    34    17    13   ar
    35     1     5    1
    36     4     6    1
@<TRIPOS>MOLECULE
*****
 33 36 0 0 0
SMALL
GASTEIGER

@<TRIPOS>ATOM
      1 N          64.3674   90.7577   14.0185 N.am    1  UNL1       -0.2533
      2 C          64.1366   89.2841   13.8607 C.2     1  UNL1        0.3092
      3 O          64.1657   88.6623   12.4959 O.2     1  UNL1       -0.2521
      4 N          63.8766   88.4321   15.0676 N.am    1  UNL1       -0.2680
      5 H          64.3482   91.1658   14.9143 H       1  UNL1        0.1578
      6 H          63.8574   88.8401   15.9633 H       1  UNL1        0.1564
      7 C          63.6458   86.9584   14.9096 C.ar    1  UNL1        0.0517
      8 C          63.5722   86.3534   13.5390 C.ar    1  UNL1        0.0163
      9 C          63.3414   84.8797   13.3811 C.ar    1  UNL1        0.0205
     10 C          63.1841   84.0110   14.5937 C.ar    1  UNL1        0.0863
     11 C          63.2577   84.6160   15.9643 C.ar    1  UNL1        0.0205
     12 C          63.4885   86.0897   16.1223 C.ar    1  UNL1        0.0163
     13 N          62.9533   82.5373   14.4358 N.ar    1  UNL1       -0.1886
     14 C          61.6267   81.8704   14.2229 C.ar    1  UNL1        0.2258
     15 N          61.8621   80.3927   14.1186 N.ar    1  UNL1       -0.1045
     16 N          63.3342   80.1463   14.2670 N.ar    1  UNL1       -0.0222
     17 N          64.0087   81.4717   14.4631 N.ar    1  UNL1       -0.0385
     18 N          63.8831   91.5465   11.5109 N.ar    1  UNL1       -0.2162
     19 N          64.4731   92.5722   10.5890 N.ar    1  UNL1       -0.1683
     20 C          65.5819   93.2695   11.3201 C.ar    1  UNL1        0.0810
     21 C          65.6772   92.6746   12.6938 C.ar    1  UNL1        0.0509
     22 C          64.6273   91.6097   12.8117 C.ar    1  UNL1        0.1380
     23 C          59.3437   87.8410   10.2213 C.3     1  UNL1        0.0310
     24 C          60.4786   88.7674   10.5437 C.ar    1  UNL1       -0.0218
     25 C          61.7444   88.7104    9.7410 C.ar    1  UNL1       -0.0027
     26 C          62.8792   89.6368   10.0634 C.ar    1  UNL1        0.0189
     27 C          62.7483   90.6201   11.1885 C.ar    1  UNL1        0.0842
     28 C          61.4825   90.6771   11.9912 C.ar    1  UNL1        0.0189
     29 C          60.3476   89.7507   11.6688 C.ar    1  UNL1       -0.0027
     30 C          66.4439   94.3686   10.7735 C.3     1  UNL1        0.0372
     31 C          66.8057   93.5028    9.6032 C.3     1  UNL1        0.0060
     32 C          66.0822   95.2343   11.9438 C.3     1  UNL1        0.0060
     33 C          67.3060   95.4677   10.2268 C.3     1  UNL1        0.0060
@<TRIPOS>BOND
     1    23    24    1
     2    24    25   ar
     3    25    26   ar
     4    26    27   ar
     5    27    18    1
     6    18    19   ar
     7    19    20   ar
     8    20    30    1
     9    30    31    1
    10    30    32    1
    11    30    33    1
    12    20    21   ar
    13    21    22   ar
    14    22     1    1
    15     1     2   am
    16     2     3    2
    17     2     4   am
    18     4     7    1
    19     7     8   ar
    20     8     9   ar
    21     9    10   ar
    22    10    13    1
    23    13    14   ar
    24    14    15   ar
    25    15    16   ar
    26    16    17   ar
    27    10    11   ar
    28    11    12   ar
    29    27    28   ar
    30    28    29   ar
    31    29    24   ar
    32    22    18   ar
    33    12     7   ar
    34    17    13   ar
    35     1     5    1
    36     4     6    1
@<TRIPOS>MOLECULE
*****
 33 36 0 0 0
SMALL
GASTEIGER

@<TRIPOS>ATOM
      1 N          62.8315   86.4910   14.3895 N.am    1  UNL1       -0.2533
      2 C          63.4763   87.6375   13.6688 C.2     1  UNL1        0.3092
      3 O          63.9729   87.4569   12.2649 O.2     1  UNL1       -0.2521
      4 N          63.6245   88.9648   14.3518 N.am    1  UNL1       -0.2680
      5 H          62.5056   86.6095   15.3109 H       1  UNL1        0.1578
      6 H          63.2986   89.0833   15.2731 H       1  UNL1        0.1564
      7 C          64.2693   90.1113   13.6309 C.ar    1  UNL1        0.0517
      8 C          63.7116   90.5823   12.3205 C.ar    1  UNL1        0.0163
      9 C          64.3564   91.7289   11.5997 C.ar    1  UNL1        0.0205
     10 C          65.5589   92.4045   12.1891 C.ar    1  UNL1        0.0863
     11 C          66.1166   91.9335   13.4995 C.ar    1  UNL1        0.0205
     12 C          65.4718   90.7869   14.2204 C.ar    1  UNL1        0.0163
     13 N          66.2037   93.5510   11.4683 N.ar    1  UNL1       -0.1886
     14 C          67.0239   93.4559   10.2160 C.ar    1  UNL1        0.2258
     15 N          67.4686   94.8401    9.8469 N.ar    1  UNL1       -0.1045
     16 N          66.9233   95.7907   10.8711 N.ar    1  UNL1       -0.0222
     17 N          66.1415   94.9940   11.8732 N.ar    1  UNL1       -0.0385
     18 N          62.1596   84.9399   12.3189 N.ar    1  UNL1       -0.2162
     19 N          62.1854   83.4651   12.0461 N.ar    1  UNL1       -0.1683
     20 C          62.7250   82.7775   13.2651 C.ar    1  UNL1        0.0810
     21 C          63.0327   83.8274   14.2914 C.ar    1  UNL1        0.0509
     22 C          62.6833   85.1637   13.7065 C.ar    1  UNL1        0.1380
     23 C          60.2900   89.1961    8.5255 C.3     1  UNL1        0.0310
     24 C          60.7574   88.1320    9.4738 C.ar    1  UNL1       -0.0218
     25 C          60.2520   88.1112   10.8859 C.ar    1  UNL1       -0.0027
     26 C          60.7193   87.0472   11.8343 C.ar    1  UNL1        0.0189
     27 C          61.6922   86.0039   11.3705 C.ar    1  UNL1        0.0842
     28 C          62.1977   86.0247    9.9584 C.ar    1  UNL1        0.0189
     29 C          61.7303   87.0887    9.0101 C.ar    1  UNL1       -0.0027
     30 C          62.9222   81.2996   13.4291 C.3     1  UNL1        0.0372
     31 C          61.5880   81.1968   14.1069 C.3     1  UNL1        0.0060
     32 C          64.2564   81.4025   12.7513 C.3     1  UNL1        0.0060
     33 C          63.1194   79.8217   13.5931 C.3     1  UNL1        0.0060
@<TRIPOS>BOND
     1    23    24    1
     2    24    25   ar
     3    25    26   ar
     4    26    27   ar
     5    27    18    1
     6    18    19   ar
     7    19    20   ar
     8    20    30    1
     9    30    31    1
    10    30    32    1
    11    30    33    1
    12    20    21   ar
    13    21    22   ar
    14    22     1    1
    15     1     2   am
    16     2     3    2
    17     2     4   am
    18     4     7    1
    19     7     8   ar
    20     8     9   ar
    21     9    10   ar
    22    10    13    1
    23    13    14   ar
    24    14    15   ar
    25    15    16   ar
    26    16    17   ar
    27    10    11   ar
    28    11    12   ar
    29    27    28   ar
    30    28    29   ar
    31    29    24   ar
    32    22    18   ar
    33    12     7   ar
    34    17    13   ar
    35     1     5    1
    36     4     6    1
@<TRIPOS>MOLECULE
*****
 33 36 0 0 0
SMALL
GASTEIGER

@<TRIPOS>ATOM
      1 N          61.9838   87.3456   12.5890 N.am    1  UNL1       -0.2533
      2 C          62.8471   88.4668   12.0917 C.2     1  UNL1        0.3092
      3 O          63.7867   88.2382   10.9448 O.2     1  UNL1       -0.2521
      4 N          62.7710   89.8168   12.7411 N.am    1  UNL1       -0.2680
      5 H          61.3672   87.4957   13.3416 H       1  UNL1        0.1578
      6 H          62.1544   89.9670   13.4937 H       1  UNL1        0.1564
      7 C          63.6344   90.9381   12.2437 C.ar    1  UNL1        0.0517
      8 C          64.6090   91.6022   13.1706 C.ar    1  UNL1        0.0163
      9 C          65.4723   92.7234   12.6733 C.ar    1  UNL1        0.0205
     10 C          65.3612   93.1806   11.2490 C.ar    1  UNL1        0.0863
     11 C          64.3867   92.5165   10.3221 C.ar    1  UNL1        0.0205
     12 C          63.5233   91.3953   10.8194 C.ar    1  UNL1        0.0163
     13 N          66.2246   94.3019   10.7516 N.ar    1  UNL1       -0.1886
     14 C          65.9857   95.7655   10.9774 C.ar    1  UNL1        0.2258
     15 N          67.0919   96.5245   10.3065 N.ar    1  UNL1       -0.1045
     16 N          68.0144   95.5301    9.6661 N.ar    1  UNL1       -0.0222
     17 N          67.4784   94.1564    9.9412 N.ar    1  UNL1       -0.0385
     18 N          61.5674   85.6490   10.5657 N.ar    1  UNL1       -0.2162
     19 N          61.8450   84.1944   10.3271 N.ar    1  UNL1       -0.1683
     20 C          62.5090   83.6419   11.5535 C.ar    1  UNL1        0.0810
     21 C          62.6419   84.7551   12.5500 C.ar    1  UNL1        0.0509
     22 C          62.0599   85.9956   11.9396 C.ar    1  UNL1        0.1380
     23 C          58.9473   89.4194    6.7032 C.3     1  UNL1        0.0310
     24 C          59.6023   88.4768    7.6688 C.ar    1  UNL1       -0.0218
     25 C          60.2296   89.0056    8.9246 C.ar    1  UNL1       -0.0027
     26 C          60.8846   88.0630    9.8902 C.ar    1  UNL1        0.0189
     27 C          60.9124   86.5916    9.6001 C.ar    1  UNL1        0.0842
     28 C          60.2852   86.0628    8.3444 C.ar    1  UNL1        0.0189
     29 C          59.6301   87.0054    7.3787 C.ar    1  UNL1       -0.0027
     30 C          62.9609   82.2250   11.7489 C.3     1  UNL1        0.0372
     31 C          63.7201   82.2889   10.4568 C.3     1  UNL1        0.0060
     32 C          62.2017   82.1611   13.0410 C.3     1  UNL1        0.0060
     33 C          63.4127   80.8081   11.9443 C.3     1  UNL1        0.0060
@<TRIPOS>BOND
     1    23    24    1
     2    24    25   ar
     3    25    26   ar
     4    26    27   ar
     5    27    18    1
     6    18    19   ar
     7    19    20   ar
     8    20    30    1
     9    30    31    1
    10    30    32    1
    11    30    33    1
    12    20    21   ar
    13    21    22   ar
    14    22     1    1
    15     1     2   am
    16     2     3    2
    17     2     4   am
    18     4     7    1
    19     7     8   ar
    20     8     9   ar
    21     9    10   ar
    22    10    13    1
    23    13    14   ar
    24    14    15   ar
    25    15    16   ar
    26    16    17   ar
    27    10    11   ar
    28    11    12   ar
    29    27    28   ar
    30    28    29   ar
    31    29    24   ar
    32    22    18   ar
    33    12     7   ar
    34    17    13   ar
    35     1     5    1
    36     4     6    1
@<TRIPOS>MOLECULE
*****
 33 36 0 0 0
SMALL
GASTEIGER

@<TRIPOS>ATOM
      1 N          60.2105   96.0659   -1.8207 N.am    1  UNL1       -0.2533
      2 C          58.8599   95.8994   -2.4515 C.2     1  UNL1        0.3092
      3 O          58.6316   94.8117   -3.4590 O.2     1  UNL1       -0.2521
      4 N          57.7375   96.8204   -2.0748 N.am    1  UNL1       -0.2680
      5 H          60.3603   96.7797   -1.1595 H       1  UNL1        0.1578
      6 H          57.8872   97.5342   -1.4136 H       1  UNL1        0.1564
      7 C          56.3868   96.6538   -2.7057 C.ar    1  UNL1        0.0517
      8 C          55.2042   96.2851   -1.8597 C.ar    1  UNL1        0.0163
      9 C          53.8536   96.1185   -2.4905 C.ar    1  UNL1        0.0205
     10 C          53.6854   96.3206   -3.9673 C.ar    1  UNL1        0.0863
     11 C          54.8679   96.6893   -4.8132 C.ar    1  UNL1        0.0205
     12 C          56.2186   96.8559   -4.1824 C.ar    1  UNL1        0.0163
     13 N          52.3347   96.1540   -4.5981 N.ar    1  UNL1       -0.1886
     14 C          51.0504   95.8812   -3.8727 C.ar    1  UNL1        0.2258
     15 N          49.9532   95.7896   -4.8914 N.ar    1  UNL1       -0.1045
     16 N          50.5593   96.0057   -6.2463 N.ar    1  UNL1       -0.0222
     17 N          52.0313   96.2310   -6.0651 N.ar    1  UNL1       -0.0385
     18 N          61.8600   94.0119   -1.3676 N.ar    1  UNL1       -0.2162
     19 N          62.9782   93.3620   -2.1274 N.ar    1  UNL1       -0.1683
     20 C          63.1422   94.0933   -3.4267 C.ar    1  UNL1        0.0810
     21 C          62.1254   95.1952   -3.4700 C.ar    1  UNL1        0.0509
     22 C          61.3330   95.1449   -2.1974 C.ar    1  UNL1        0.1380
     23 C          59.8485   92.3682    4.0410 C.3     1  UNL1        0.0310
     24 C          60.3514   92.7791    2.6888 C.ar    1  UNL1       -0.0218
     25 C          59.3798   93.0678    1.5832 C.ar    1  UNL1       -0.0027
     26 C          59.8826   93.4787    0.2310 C.ar    1  UNL1        0.0189
     27 C          61.3571   93.6010   -0.0155 C.ar    1  UNL1        0.0842
     28 C          62.3288   93.3124    1.0902 C.ar    1  UNL1        0.0189
     29 C          61.8259   92.9014    2.4423 C.ar    1  UNL1       -0.0027
     30 C          64.1467   93.7780   -4.4951 C.3     1  UNL1        0.0372
     31 C          64.3035   92.3937   -3.9393 C.3     1  UNL1        0.0060
     32 C          63.9900   95.1624   -5.0510 C.3     1  UNL1        0.0060
     33 C          65.1512   93.4627   -5.5636 C.3     1  UNL1        0.0060
@<TRIPOS>BOND
     1    23    24    1
     2    24    25   ar
     3    25    26   ar
     4    26    27   ar
     5    27    18    1
     6    18    19   ar
     7    19    20   ar
     8    20    30    1
     9    30    31    1
    10    30    32    1
    11    30    33    1
    12    20    21   ar
    13    21    22   ar
    14    22     1    1
    15     1     2   am
    16     2     3    2
    17     2     4   am
    18     4     7    1
    19     7     8   ar
    20     8     9   ar
    21     9    10   ar
    22    10    13    1
    23    13    14   ar
    24    14    15   ar
    25    15    16   ar
    26    16    17   ar
    27    10    11   ar
    28    11    12   ar
    29    27    28   ar
    30    28    29   ar
    31    29    24   ar
    32    22    18   ar
    33    12     7   ar
    34    17    13   ar
    35     1     5    1
    36     4     6    1
@<TRIPOS>MOLECULE
*****
 33 36 0 0 0
SMALL
GASTEIGER

@<TRIPOS>ATOM
      1 N          63.7288   89.9856   16.0115 N.am    1  UNL1       -0.2533
      2 C          63.7349   88.5552   15.5602 C.2     1  UNL1        0.3092
      3 O          64.6758   88.1140   14.4784 O.2     1  UNL1       -0.2521
      4 N          62.8002   87.5658   16.1905 N.am    1  UNL1       -0.2680
      5 H          63.1113   90.2751   16.7214 H       1  UNL1        0.1578
      6 H          62.1826   87.8553   16.9005 H       1  UNL1        0.1564
      7 C          62.8063   86.1354   15.7391 C.ar    1  UNL1        0.0517
      8 C          61.5147   85.3830   15.6134 C.ar    1  UNL1        0.0163
      9 C          61.5208   83.9526   15.1620 C.ar    1  UNL1        0.0205
     10 C          62.8185   83.2744   14.8363 C.ar    1  UNL1        0.0863
     11 C          64.1101   84.0267   14.9621 C.ar    1  UNL1        0.0205
     12 C          64.1039   85.4572   15.4135 C.ar    1  UNL1        0.0163
     13 N          62.8246   81.8439   14.3849 N.ar    1  UNL1       -0.1886
     14 C          61.6436   81.0777   13.8671 C.ar    1  UNL1        0.2258
     15 N          62.1019   79.6888   13.5343 N.ar    1  UNL1       -0.1045
     16 N          63.5662   79.5966   13.8464 N.ar    1  UNL1       -0.0222
     17 N          64.0128   80.9286   14.3722 N.ar    1  UNL1       -0.0385
     18 N          64.6360   91.4267   13.9510 N.ar    1  UNL1       -0.2162
     19 N          65.7454   92.4172   13.7563 N.ar    1  UNL1       -0.1683
     20 C          66.4587   92.5778   15.0661 C.ar    1  UNL1        0.0810
     21 C          65.7901   91.6864   16.0703 C.ar    1  UNL1        0.0509
     22 C          64.6636   90.9750   15.3811 C.ar    1  UNL1        0.1380
     23 C          60.7670   89.5931    9.7475 C.3     1  UNL1        0.0310
     24 C          61.7343   90.0515   10.7984 C.ar    1  UNL1       -0.0218
     25 C          62.9710   90.8026   10.4030 C.ar    1  UNL1       -0.0027
     26 C          63.9382   91.2610   11.4539 C.ar    1  UNL1        0.0189
     27 C          63.6687   90.9683   12.9001 C.ar    1  UNL1        0.0842
     28 C          62.4320   90.2172   13.2955 C.ar    1  UNL1        0.0189
     29 C          61.4648   89.7588   12.2446 C.ar    1  UNL1       -0.0027
     30 C          67.6342   93.4725   15.3260 C.3     1  UNL1        0.0372
     31 C          67.1354   94.4302   14.2848 C.3     1  UNL1        0.0060
     32 C          68.1330   92.5148   16.3671 C.3     1  UNL1        0.0060
     33 C          68.8097   94.3673   15.5858 C.3     1  UNL1        0.0060
@<TRIPOS>BOND
     1    23    24    1
     2    24    25   ar
     3    25    26   ar
     4    26    27   ar
     5    27    18    1
     6    18    19   ar
     7    19    20   ar
     8    20    30    1
     9    30    31    1
    10    30    32    1
    11    30    33    1
    12    20    21   ar
    13    21    22   ar
    14    22     1    1
    15     1     2   am
    16     2     3    2
    17     2     4   am
    18     4     7    1
    19     7     8   ar
    20     8     9   ar
    21     9    10   ar
    22    10    13    1
    23    13    14   ar
    24    14    15   ar
    25    15    16   ar
    26    16    17   ar
    27    10    11   ar
    28    11    12   ar
    29    27    28   ar
    30    28    29   ar
    31    29    24   ar
    32    22    18   ar
    33    12     7   ar
    34    17    13   ar
    35     1     5    1
    36     4     6    1
