@<TRIPOS>MOLECULE
*****
 19 21 0 0 0
SMALL
GASTEIGER

@<TRIPOS>ATOM
      1 C          62.3902   86.5241    9.3469 C.3     1  UNL1        0.0446
      2 C          62.6426   85.4348   10.3468 C.ar    1  UNL1        0.0080
      3 C          63.2533   84.0959   10.0566 C.ar    1  UNL1        0.0027
      4 C          63.3168   83.3267   11.3429 C.ar    1  UNL1        0.0062
      5 C          63.8211   81.9516   11.6662 C.ar    1  UNL1        0.0005
      6 C          63.7539   81.4401   13.0747 C.ar    1  UNL1        0.0000
      7 C          63.1823   82.3037   14.1598 C.ar    1  UNL1        0.0005
      8 C          62.6779   83.6788   13.8364 C.ar    1  UNL1        0.0065
      9 C          62.7452   84.1903   12.4280 C.ar    1  UNL1        0.0291
     10 S          62.3285   85.4932   11.8123 S.2     1  UNL1       -0.0913
     11 C          61.2929   84.8262    6.7852 C.3     1  UNL1        0.0496
     12 C          60.5336   85.8805    7.5346 C.2     1  UNL1        0.0643
     13 N          59.1367   86.3395    7.2382 N.2     1  UNL1       -0.1566
     14 N          58.7777   87.4037    8.2326 N.2     1  UNL1       -0.1515
     15 C          59.9528   87.6024    9.1435 C.2     1  UNL1        0.0996
     16 C          61.0380   86.6610    8.7122 C.3     1  UNL1        0.0858
     17 C          60.0292   88.5722   10.2853 C.2     1  UNL1        0.0885
     18 O          59.9974   88.0707   11.6987 O.co2   1  UNL1       -0.5433
     19 O          60.1374   90.0434   10.0138 O.co2   1  UNL1       -0.5433
@<TRIPOS>UNITY_ATOM_ATTR
18 1
charge -1
@<TRIPOS>BOND
     1    11    12    1
     2    12    13    2
     3    13    14    1
     4    14    15    2
     5    15    17    1
     6    17    18   ar
     7    17    19   ar
     8    15    16    1
     9    16     1    1
    10     1     2    1
    11     2     3   ar
    12     3     4   ar
    13     4     5   ar
    14     5     6   ar
    15     6     7   ar
    16     7     8   ar
    17     8     9   ar
    18     9    10   ar
    19    16    12    1
    20    10     2   ar
    21     9     4   ar
@<TRIPOS>MOLECULE
*****
 19 21 0 0 0
SMALL
GASTEIGER

@<TRIPOS>ATOM
      1 C          61.7954   89.8737   12.5647 C.3     1  UNL1        0.0446
      2 C          61.5567   88.9211   11.4310 C.ar    1  UNL1        0.0080
      3 C          62.5383   87.9190   10.8998 C.ar    1  UNL1        0.0027
      4 C          61.8827   87.1818    9.7698 C.ar    1  UNL1        0.0062
      5 C          62.3693   86.0835    8.8716 C.ar    1  UNL1        0.0005
      6 C          61.4691   85.5318    7.8062 C.ar    1  UNL1        0.0000
      7 C          60.0823   86.0782    7.6390 C.ar    1  UNL1        0.0005
      8 C          59.5956   87.1765    8.5373 C.ar    1  UNL1        0.0065
      9 C          60.4958   87.7283    9.6027 C.ar    1  UNL1        0.0291
     10 S          60.2943   88.8032   10.6294 S.2     1  UNL1       -0.0913
     11 C          63.2308   91.3688   10.0441 C.3     1  UNL1        0.0496
     12 C          63.7241   91.3590   11.4605 C.2     1  UNL1        0.0643
     13 N          64.9638   92.0347   11.9671 N.2     1  UNL1       -0.1566
     14 N          65.0702   91.7651   13.4389 N.2     1  UNL1       -0.1515
     15 C          63.8963   90.9227   13.8419 C.2     1  UNL1        0.0996
     16 C          63.0643   90.6718   12.6192 C.3     1  UNL1        0.0858
     17 C          63.6054   90.4197   15.2248 C.2     1  UNL1        0.0885
     18 O          63.4863   88.9459   15.4771 O.co2   1  UNL1       -0.5433
     19 O          63.4335   91.3905   16.3552 O.co2   1  UNL1       -0.5433
@<TRIPOS>UNITY_ATOM_ATTR
18 1
charge -1
@<TRIPOS>BOND
     1    11    12    1
     2    12    13    2
     3    13    14    1
     4    14    15    2
     5    15    17    1
     6    17    18   ar
     7    17    19   ar
     8    15    16    1
     9    16     1    1
    10     1     2    1
    11     2     3   ar
    12     3     4   ar
    13     4     5   ar
    14     5     6   ar
    15     6     7   ar
    16     7     8   ar
    17     8     9   ar
    18     9    10   ar
    19    16    12    1
    20    10     2   ar
    21     9     4   ar
@<TRIPOS>MOLECULE
*****
 19 21 0 0 0
SMALL
GASTEIGER

@<TRIPOS>ATOM
      1 C          66.4145   93.8106   11.8878 C.3     1  UNL1        0.0446
      2 C          65.3935   92.7181   11.7700 C.ar    1  UNL1        0.0080
      3 C          64.6076   92.3746   10.5394 C.ar    1  UNL1        0.0027
      4 C          63.7075   91.2214   10.8710 C.ar    1  UNL1        0.0062
      5 C          62.7085   90.4599   10.0513 C.ar    1  UNL1        0.0005
      6 C          61.9392   89.3290   10.6671 C.ar    1  UNL1        0.0000
      7 C          62.1688   88.9597   12.1026 C.ar    1  UNL1        0.0005
      8 C          63.1678   89.7212   12.9224 C.ar    1  UNL1        0.0065
      9 C          63.9372   90.8521   12.3066 C.ar    1  UNL1        0.0291
     10 S          64.9792   91.7770   12.8622 S.2     1  UNL1       -0.0913
     11 C          65.4903   96.8556   11.1643 C.3     1  UNL1        0.0496
     12 C          66.3971   95.9902   10.3404 C.2     1  UNL1        0.0643
     13 N          67.0383   96.3725    9.0394 N.2     1  UNL1       -0.1566
     14 N          67.8594   95.2091    8.5678 N.2     1  UNL1       -0.1515
     15 C          67.7256   94.1078    9.5775 C.2     1  UNL1        0.0996
     16 C          66.8219   94.5905   10.6730 C.3     1  UNL1        0.0858
     17 C          68.3806   92.7603    9.5044 C.2     1  UNL1        0.0885
     18 O          68.6745   91.9999   10.7635 O.co2   1  UNL1       -0.5433
     19 O          68.7419   92.1733    8.1721 O.co2   1  UNL1       -0.5433
@<TRIPOS>UNITY_ATOM_ATTR
18 1
charge -1
@<TRIPOS>BOND
     1    11    12    1
     2    12    13    2
     3    13    14    1
     4    14    15    2
     5    15    17    1
     6    17    18   ar
     7    17    19   ar
     8    15    16    1
     9    16     1    1
    10     1     2    1
    11     2     3   ar
    12     3     4   ar
    13     4     5   ar
    14     5     6   ar
    15     6     7   ar
    16     7     8   ar
    17     8     9   ar
    18     9    10   ar
    19    16    12    1
    20    10     2   ar
    21     9     4   ar
@<TRIPOS>MOLECULE
*****
 19 21 0 0 0
SMALL
GASTEIGER

@<TRIPOS>ATOM
      1 C          64.2152   83.6227   11.5960 C.3     1  UNL1        0.0446
      2 C          63.2310   84.5127   10.8967 C.ar    1  UNL1        0.0080
      3 C          62.9821   84.5618    9.4183 C.ar    1  UNL1        0.0027
      4 C          61.9201   85.5893    9.1608 C.ar    1  UNL1        0.0062
      5 C          61.2715   86.0671    7.8955 C.ar    1  UNL1        0.0005
      6 C          60.2154   87.1308    7.9495 C.ar    1  UNL1        0.0000
      7 C          59.8079   87.7169    9.2688 C.ar    1  UNL1        0.0005
      8 C          60.4565   87.2391   10.5340 C.ar    1  UNL1        0.0065
      9 C          61.5126   86.1753   10.4801 C.ar    1  UNL1        0.0291
     10 S          62.3228   85.5100   11.5529 S.2     1  UNL1       -0.0913
     11 C          62.8322   80.6946   11.9996 C.3     1  UNL1        0.0496
     12 C          63.2191   81.6451   13.0935 C.2     1  UNL1        0.0643
     13 N          63.0384   81.4167   14.5650 N.2     1  UNL1       -0.1566
     14 N          63.5624   82.6215   15.2889 N.2     1  UNL1       -0.1515
     15 C          64.0670   83.5945   14.2648 C.2     1  UNL1        0.0996
     16 C          63.8549   82.9911   12.9080 C.3     1  UNL1        0.0858
     17 C          64.6767   84.9355   14.5479 C.2     1  UNL1        0.0885
     18 O          63.7950   86.1162   14.8279 O.co2   1  UNL1       -0.5433
     19 O          66.1681   85.0957   14.5509 O.co2   1  UNL1       -0.5433
@<TRIPOS>UNITY_ATOM_ATTR
18 1
charge -1
@<TRIPOS>BOND
     1    11    12    1
     2    12    13    2
     3    13    14    1
     4    14    15    2
     5    15    17    1
     6    17    18   ar
     7    17    19   ar
     8    15    16    1
     9    16     1    1
    10     1     2    1
    11     2     3   ar
    12     3     4   ar
    13     4     5   ar
    14     5     6   ar
    15     6     7   ar
    16     7     8   ar
    17     8     9   ar
    18     9    10   ar
    19    16    12    1
    20    10     2   ar
    21     9     4   ar
@<TRIPOS>MOLECULE
*****
 19 21 0 0 0
SMALL
GASTEIGER

@<TRIPOS>ATOM
      1 C          63.5329   91.5453   12.3420 C.3     1  UNL1        0.0446
      2 C          63.0462   90.2443   11.7758 C.ar    1  UNL1        0.0080
      3 C          63.2603   88.8864   12.3760 C.ar    1  UNL1        0.0027
      4 C          62.6063   87.8757   11.4811 C.ar    1  UNL1        0.0062
      5 C          62.4939   86.3824   11.5674 C.ar    1  UNL1        0.0005
      6 C          61.7633   85.6224   10.5004 C.ar    1  UNL1        0.0000
      7 C          61.1451   86.3557    9.3471 C.ar    1  UNL1        0.0005
      8 C          61.2575   87.8489    9.2608 C.ar    1  UNL1        0.0065
      9 C          61.9881   88.6089   10.3278 C.ar    1  UNL1        0.0291
     10 S          62.2600   90.0728   10.5099 S.2     1  UNL1       -0.0913
     11 C          66.3532   92.4237   10.9550 C.3     1  UNL1        0.0496
     12 C          66.1635   92.0179   12.3865 C.2     1  UNL1        0.0643
     13 N          67.2368   91.9445   13.4317 N.2     1  UNL1       -0.1566
     14 N          66.6038   91.4953   14.7154 N.2     1  UNL1       -0.1515
     15 C          65.1392   91.2911   14.4633 C.2     1  UNL1        0.0996
     16 C          64.8671   91.6141   13.0240 C.3     1  UNL1        0.0858
     17 C          64.1249   90.8427   15.4734 C.2     1  UNL1        0.0885
     18 O          63.7378   89.3959   15.5561 O.co2   1  UNL1       -0.5433
     19 O          63.4978   91.8411   16.4006 O.co2   1  UNL1       -0.5433
@<TRIPOS>UNITY_ATOM_ATTR
18 1
charge -1
@<TRIPOS>BOND
     1    11    12    1
     2    12    13    2
     3    13    14    1
     4    14    15    2
     5    15    17    1
     6    17    18   ar
     7    17    19   ar
     8    15    16    1
     9    16     1    1
    10     1     2    1
    11     2     3   ar
    12     3     4   ar
    13     4     5   ar
    14     5     6   ar
    15     6     7   ar
    16     7     8   ar
    17     8     9   ar
    18     9    10   ar
    19    16    12    1
    20    10     2   ar
    21     9     4   ar
@<TRIPOS>MOLECULE
*****
 19 21 0 0 0
SMALL
GASTEIGER

@<TRIPOS>ATOM
      1 C          64.4354   88.9702   13.9330 C.3     1  UNL1        0.0446
      2 C          63.4584   88.8504   12.8011 C.ar    1  UNL1        0.0080
      3 C          63.0632   87.5801   12.1082 C.ar    1  UNL1        0.0027
      4 C          62.0657   87.9245   11.0422 C.ar    1  UNL1        0.0062
      5 C          61.3303   87.0792   10.0449 C.ar    1  UNL1        0.0005
      6 C          60.3737   87.7171    9.0816 C.ar    1  UNL1        0.0000
      7 C          60.1525   89.2003    9.1157 C.ar    1  UNL1        0.0005
      8 C          60.8878   90.0456   10.1129 C.ar    1  UNL1        0.0065
      9 C          61.8445   89.4077   11.0762 C.ar    1  UNL1        0.0291
     10 S          62.7052   89.9800   12.1632 S.2     1  UNL1       -0.0913
     11 C          62.7011   89.0904   16.6947 C.3     1  UNL1        0.0496
     12 C          63.5573   90.1913   16.1428 C.2     1  UNL1        0.0643
     13 N          63.7668   91.5408   16.7633 N.2     1  UNL1       -0.1566
     14 N          64.6935   92.3196   15.8774 N.2     1  UNL1       -0.1515
     15 C          65.0567   91.4514   14.7093 C.2     1  UNL1        0.0996
     16 C          64.3545   90.1360   14.8733 C.3     1  UNL1        0.0858
     17 C          65.9629   91.8318   13.5761 C.2     1  UNL1        0.0885
     18 O          67.4442   91.6312   13.7007 O.co2   1  UNL1       -0.5433
     19 O          65.3879   92.4128   12.3185 O.co2   1  UNL1       -0.5433
@<TRIPOS>UNITY_ATOM_ATTR
18 1
charge -1
@<TRIPOS>BOND
     1    11    12    1
     2    12    13    2
     3    13    14    1
     4    14    15    2
     5    15    17    1
     6    17    18   ar
     7    17    19   ar
     8    15    16    1
     9    16     1    1
    10     1     2    1
    11     2     3   ar
    12     3     4   ar
    13     4     5   ar
    14     5     6   ar
    15     6     7   ar
    16     7     8   ar
    17     8     9   ar
    18     9    10   ar
    19    16    12    1
    20    10     2   ar
    21     9     4   ar
@<TRIPOS>MOLECULE
*****
 19 21 0 0 0
SMALL
GASTEIGER

@<TRIPOS>ATOM
      1 C          63.7730   83.6843   11.8094 C.3     1  UNL1        0.0446
      2 C          62.8831   84.6989   11.1547 C.ar    1  UNL1        0.0080
      3 C          62.1059   85.7732   11.8559 C.ar    1  UNL1        0.0027
      4 C          61.3567   86.5557   10.8183 C.ar    1  UNL1        0.0062
      5 C          60.4290   87.7297   10.9226 C.ar    1  UNL1        0.0005
      6 C          59.8155   88.3131    9.6843 C.ar    1  UNL1        0.0000
      7 C          60.1298   87.7223    8.3418 C.ar    1  UNL1        0.0005
      8 C          61.0575   86.5483    8.2376 C.ar    1  UNL1        0.0065
      9 C          61.6710   85.9650    9.4759 C.ar    1  UNL1        0.0291
     10 S          62.6143   84.8174    9.6837 S.2     1  UNL1       -0.0913
     11 C          63.0818   80.6929   10.7034 C.3     1  UNL1        0.0496
     12 C          62.8557   81.1904   12.1002 C.2     1  UNL1        0.0643
     13 N          62.2722   80.4003   13.2340 N.2     1  UNL1       -0.1566
     14 N          62.2293   81.2870   14.4431 N.2     1  UNL1       -0.1515
     15 C          62.7863   82.6252   14.0566 C.2     1  UNL1        0.0996
     16 C          63.1734   82.5655   12.6086 C.3     1  UNL1        0.0858
     17 C          62.9307   83.8142   14.9596 C.2     1  UNL1        0.0885
     18 O          64.2786   84.1819   15.5056 O.co2   1  UNL1       -0.5433
     19 O          61.7274   84.6355   15.3165 O.co2   1  UNL1       -0.5433
@<TRIPOS>UNITY_ATOM_ATTR
18 1
charge -1
@<TRIPOS>BOND
     1    11    12    1
     2    12    13    2
     3    13    14    1
     4    14    15    2
     5    15    17    1
     6    17    18   ar
     7    17    19   ar
     8    15    16    1
     9    16     1    1
    10     1     2    1
    11     2     3   ar
    12     3     4   ar
    13     4     5   ar
    14     5     6   ar
    15     6     7   ar
    16     7     8   ar
    17     8     9   ar
    18     9    10   ar
    19    16    12    1
    20    10     2   ar
    21     9     4   ar
@<TRIPOS>MOLECULE
*****
 19 21 0 0 0
SMALL
GASTEIGER

@<TRIPOS>ATOM
      1 C          63.5053   85.0287   12.6789 C.3     1  UNL1        0.0446
      2 C          62.6695   85.7716   11.6791 C.ar    1  UNL1        0.0080
      3 C          61.8930   85.1599   10.5509 C.ar    1  UNL1        0.0027
      4 C          61.2071   86.2669    9.8065 C.ar    1  UNL1        0.0062
      5 C          60.3070   86.2623    8.6066 C.ar    1  UNL1        0.0005
      6 C          59.7596   87.5536    8.0748 C.ar    1  UNL1        0.0000
      7 C          60.1122   88.8494    8.7429 C.ar    1  UNL1        0.0005
      8 C          61.0123   88.8540    9.9428 C.ar    1  UNL1        0.0065
      9 C          61.5597   87.5627   10.4746 C.ar    1  UNL1        0.0291
     10 S          62.4636   87.2566   11.6319 S.2     1  UNL1       -0.0913
     11 C          62.1063   84.4756   15.5747 C.3     1  UNL1        0.0496
     12 C          62.4049   83.4432   14.5284 C.2     1  UNL1        0.0643
     13 N          62.1130   81.9754   14.6293 N.2     1  UNL1       -0.1566
     14 N          62.5756   81.3224   13.3606 N.2     1  UNL1       -0.1515
     15 C          63.1535   82.3868   12.4755 C.2     1  UNL1        0.0996
     16 C          63.0480   83.6975   13.1972 C.3     1  UNL1        0.0858
     17 C          63.7348   82.1771   11.1087 C.2     1  UNL1        0.0885
     18 O          63.1691   81.1202   10.2071 O.co2   1  UNL1       -0.5433
     19 O          64.8819   83.0244   10.6435 O.co2   1  UNL1       -0.5433
@<TRIPOS>UNITY_ATOM_ATTR
18 1
charge -1
@<TRIPOS>BOND
     1    11    12    1
     2    12    13    2
     3    13    14    1
     4    14    15    2
     5    15    17    1
     6    17    18   ar
     7    17    19   ar
     8    15    16    1
     9    16     1    1
    10     1     2    1
    11     2     3   ar
    12     3     4   ar
    13     4     5   ar
    14     5     6   ar
    15     6     7   ar
    16     7     8   ar
    17     8     9   ar
    18     9    10   ar
    19    16    12    1
    20    10     2   ar
    21     9     4   ar
@<TRIPOS>MOLECULE
*****
 19 21 0 0 0
SMALL
GASTEIGER

@<TRIPOS>ATOM
      1 C          64.1349   91.3425   14.4060 C.3     1  UNL1        0.0446
      2 C          63.9516   89.9565   14.9493 C.ar    1  UNL1        0.0080
      3 C          64.4714   88.6918   14.3325 C.ar    1  UNL1        0.0027
      4 C          64.0574   87.5454   15.2068 C.ar    1  UNL1        0.0062
      5 C          64.2864   86.0670   15.0987 C.ar    1  UNL1        0.0005
      6 C          63.7399   85.1447   16.1478 C.ar    1  UNL1        0.0000
      7 C          62.9643   85.7009   17.3050 C.ar    1  UNL1        0.0005
      8 C          62.7352   87.1793   17.4131 C.ar    1  UNL1        0.0065
      9 C          63.2818   88.1016   16.3640 C.ar    1  UNL1        0.0291
     10 S          63.2164   89.5917   16.2049 S.2     1  UNL1       -0.0913
     11 C          62.1015   90.2394   12.1044 C.3     1  UNL1        0.0496
     12 C          63.3422   91.0490   11.8701 C.2     1  UNL1        0.0643
     13 N          63.8661   91.4938   10.5368 N.2     1  UNL1       -0.1566
     14 N          65.1247   92.2757   10.7707 N.2     1  UNL1       -0.1515
     15 C          65.3786   92.3142   12.2487 C.2     1  UNL1        0.0996
     16 C          64.2769   91.5561   12.9281 C.3     1  UNL1        0.0858
     17 C          66.5316   92.9919   12.9278 C.2     1  UNL1        0.0885
     18 O          67.8721   92.3207   12.9782 O.co2   1  UNL1       -0.5433
     19 O          66.3442   94.3408   13.5566 O.co2   1  UNL1       -0.5433
@<TRIPOS>UNITY_ATOM_ATTR
18 1
charge -1
@<TRIPOS>BOND
     1    11    12    1
     2    12    13    2
     3    13    14    1
     4    14    15    2
     5    15    17    1
     6    17    18   ar
     7    17    19   ar
     8    15    16    1
     9    16     1    1
    10     1     2    1
    11     2     3   ar
    12     3     4   ar
    13     4     5   ar
    14     5     6   ar
    15     6     7   ar
    16     7     8   ar
    17     8     9   ar
    18     9    10   ar
    19    16    12    1
    20    10     2   ar
    21     9     4   ar
