@<TRIPOS>MOLECULE
*****
 34 37 0 0 0
SMALL
GASTEIGER

@<TRIPOS>ATOM
      1 N          61.6703   85.7645   11.8156 N.pl3   1  UNL1       -0.3148
      2 H          60.9351   85.5273   12.4260 H       1  UNL1        0.1520
      3 C          61.8000   87.1702   11.3086 C.2     1  UNL1        0.0450
      4 C          62.7291   88.1306   11.9901 C.2     1  UNL1        0.0577
      5 C          62.8589   89.5362   11.4831 C.2     1  UNL1        0.1962
      6 N          62.0596   89.9817   10.2945 N.2     1  UNL1       -0.0378
      7 C          61.1305   89.0213    9.6129 C.2     1  UNL1        0.3604
      8 N          60.2216   89.1730    8.4293 N.2     1  UNL1       -0.0343
      9 C          59.5301   87.8610    8.2049 C.2     1  UNL1        0.2321
     10 C          60.0116   86.8984    9.2498 C.2     1  UNL1        0.0421
     11 C          61.0007   87.6156   10.1200 C.3     1  UNL1        0.1734
     12 C          63.7880   90.4966   12.1647 C.ar    1  UNL1        0.0706
     13 C          64.1931   90.2646   13.5902 C.ar    1  UNL1        0.0083
     14 C          65.1221   91.2249   14.2718 C.ar    1  UNL1        0.0299
     15 C          65.6462   92.4173   13.5278 C.ar    1  UNL1        0.1424
     16 F          66.5752   93.3777   14.2093 F       1  UNL1       -0.2041
     17 C          65.2412   92.6494   12.1023 C.ar    1  UNL1        0.0594
     18 C          64.3121   91.6891   11.4207 C.ar    1  UNL1        0.1459
     19 F          63.9070   91.9211    9.9952 F       1  UNL1       -0.2040
     20 C          63.2204   83.7643   12.4041 C.ar    1  UNL1        0.0858
     21 C          64.2106   82.7200   11.9812 C.ar    1  UNL1        0.1046
     22 N          64.6410   82.6316   10.5469 N.ar    1  UNL1       -0.2421
     23 C          64.0811   83.5875    9.5356 C.ar    1  UNL1        0.1002
     24 C          63.0908   84.6319    9.9585 C.ar    1  UNL1        0.0354
     25 C          62.6605   84.7202   11.3927 C.ar    1  UNL1        0.0556
     26 N          63.1775   85.0422   14.6657 N.am    1  UNL1       -0.2994
     27 C          62.7900   83.8527   13.8383 C.2     1  UNL1        0.2486
     28 O          61.9721   82.7513   14.4451 O.2     1  UNL1       -0.2700
     29 H          63.7143   85.7651   14.2674 H       1  UNL1        0.1498
     30 C          62.7472   85.1306   16.0999 C.3     1  UNL1        0.1068
     31 C          63.0939   86.3420   16.9138 C.3     1  UNL1        0.0901
     32 C          63.0534   88.9390   16.8547 C.3     1  UNL1        0.0859
     33 N          63.4398   87.6313   16.2298 N.3     1  UNL1       -0.2949
     34 H          64.4540   87.6447   16.1222 H       1  UNL1        0.1233
@<TRIPOS>BOND
     1    32    33    1
     2    33    31    1
     3    31    30    1
     4    30    26    1
     5    26    27   am
     6    27    28    2
     7    27    20    1
     8    20    21   ar
     9    21    22   ar
    10    22    23   ar
    11    23    24   ar
    12    24    25   ar
    13    25     1    1
    14     1     3    1
    15     3     4    2
    16     4     5    1
    17     5    12    1
    18    12    13   ar
    19    13    14   ar
    20    14    15   ar
    21    15    16    1
    22    15    17   ar
    23    17    18   ar
    24    18    19    1
    25     5     6    2
    26     6     7    1
    27     7     8    2
    28     8     9    1
    29     9    10    2
    30    10    11    1
    31    25    20   ar
    32    11     3    1
    33    18    12   ar
    34    11     7    1
    35    33    34    1
    36    26    29    1
    37     1     2    1
@<TRIPOS>MOLECULE
*****
 34 37 0 0 0
SMALL
GASTEIGER

@<TRIPOS>ATOM
      1 N          61.7215   89.6665   11.9303 N.pl3   1  UNL1       -0.3148
      2 H          61.0176   89.9234   12.5689 H       1  UNL1        0.1520
      3 C          61.6154   88.3734   11.1774 C.2     1  UNL1        0.0450
      4 C          62.2344   87.1269   11.7367 C.2     1  UNL1        0.0577
      5 C          62.1284   85.8339   10.9839 C.2     1  UNL1        0.1962
      6 N          61.4032   85.7874    9.6716 N.2     1  UNL1       -0.0378
      7 C          60.7842   87.0340    9.1122 C.2     1  UNL1        0.3604
      8 N          60.0133   87.2933    7.8519 N.2     1  UNL1       -0.0343
      9 C          59.6430   88.7466    7.8259 C.2     1  UNL1        0.2321
     10 C          60.1850   89.3855    9.0701 C.2     1  UNL1        0.0421
     11 C          60.8903   88.3270    9.8651 C.3     1  UNL1        0.1734
     12 C          62.7474   84.5873   11.5433 C.ar    1  UNL1        0.0706
     13 C          62.5630   84.2431   12.9916 C.ar    1  UNL1        0.0083
     14 C          63.1820   82.9966   13.5509 C.ar    1  UNL1        0.0299
     15 C          63.9855   82.0942   12.6620 C.ar    1  UNL1        0.1424
     16 F          64.6046   80.8477   13.2213 F       1  UNL1       -0.2041
     17 C          64.1700   82.4384   11.2137 C.ar    1  UNL1        0.0594
     18 C          63.5509   83.6850   10.6544 C.ar    1  UNL1        0.1459
     19 F          63.7353   84.0293    9.2061 F       1  UNL1       -0.2040
     20 C          63.9081   90.7646   12.8035 C.ar    1  UNL1        0.0858
     21 C          65.0867   91.6661   12.5835 C.ar    1  UNL1        0.1046
     22 N          65.2571   92.3709   11.2703 N.ar    1  UNL1       -0.2421
     23 C          64.2490   92.1741   10.1772 C.ar    1  UNL1        0.1002
     24 C          63.0704   91.2726   10.3972 C.ar    1  UNL1        0.0354
     25 C          62.9000   90.5679   11.7103 C.ar    1  UNL1        0.0556
     26 N          64.0864   88.6062   14.2385 N.am    1  UNL1       -0.2994
     27 C          63.7378   90.0599   14.1167 C.2     1  UNL1        0.2486
     28 O          63.2187   90.8091   15.3081 O.2     1  UNL1       -0.2700
     29 H          64.4271   88.1145   13.4565 H       1  UNL1        0.1498
     30 C          63.9160   87.9015   15.5516 C.3     1  UNL1        0.1068
     31 C          63.9066   86.4024   15.6027 C.3     1  UNL1        0.0901
     32 C          62.5424   86.3437   17.8129 C.3     1  UNL1        0.0859
     33 N          62.9705   85.6894   16.5329 N.3     1  UNL1       -0.2949
     34 H          62.1208   85.4945   16.0033 H       1  UNL1        0.1233
@<TRIPOS>BOND
     1    32    33    1
     2    33    31    1
     3    31    30    1
     4    30    26    1
     5    26    27   am
     6    27    28    2
     7    27    20    1
     8    20    21   ar
     9    21    22   ar
    10    22    23   ar
    11    23    24   ar
    12    24    25   ar
    13    25     1    1
    14     1     3    1
    15     3     4    2
    16     4     5    1
    17     5    12    1
    18    12    13   ar
    19    13    14   ar
    20    14    15   ar
    21    15    16    1
    22    15    17   ar
    23    17    18   ar
    24    18    19    1
    25     5     6    2
    26     6     7    1
    27     7     8    2
    28     8     9    1
    29     9    10    2
    30    10    11    1
    31    25    20   ar
    32    11     3    1
    33    18    12   ar
    34    11     7    1
    35    33    34    1
    36    26    29    1
    37     1     2    1
@<TRIPOS>MOLECULE
*****
 34 37 0 0 0
SMALL
GASTEIGER

@<TRIPOS>ATOM
      1 N          64.7618   87.8088   14.7000 N.pl3   1  UNL1       -0.3148
      2 H          65.7343   87.6856   14.7911 H       1  UNL1        0.1520
      3 C          64.2149   88.6734   13.6030 C.2     1  UNL1        0.0450
      4 C          63.2899   88.0882   12.5774 C.2     1  UNL1        0.0577
      5 C          62.7430   88.9527   11.4804 C.2     1  UNL1        0.1962
      6 N          63.1212   90.4025   11.4089 N.2     1  UNL1       -0.0378
      7 C          64.0462   90.9878   12.4345 C.2     1  UNL1        0.3604
      8 N          64.5928   92.3723   12.6193 N.2     1  UNL1       -0.0343
      9 C          65.4775   92.3635   13.8306 C.2     1  UNL1        0.2321
     10 C          65.4777   90.9734   14.3944 C.2     1  UNL1        0.0421
     11 C          64.5931   90.1232   13.5315 C.3     1  UNL1        0.1734
     12 C          61.8179   88.3674   10.4548 C.ar    1  UNL1        0.0706
     13 C          61.9887   86.9430   10.0167 C.ar    1  UNL1        0.0083
     14 C          61.0636   86.3578    8.9911 C.ar    1  UNL1        0.0299
     15 C          59.9678   87.1969    8.4037 C.ar    1  UNL1        0.1424
     16 F          59.0427   86.6118    7.3782 F       1  UNL1       -0.2041
     17 C          59.7971   88.6213    8.8419 C.ar    1  UNL1        0.0594
     18 C          60.7221   89.2066    9.8674 C.ar    1  UNL1        0.1459
     19 F          60.5514   90.6310   10.3057 F       1  UNL1       -0.2040
     20 C          63.4898   85.6815   15.4786 C.ar    1  UNL1        0.0858
     21 C          62.5550   85.0047   16.4367 C.ar    1  UNL1        0.1046
     22 N          61.9574   85.7784   17.5744 N.ar    1  UNL1       -0.2421
     23 C          62.2946   87.2289   17.7539 C.ar    1  UNL1        0.1002
     24 C          63.2295   87.9058   16.7957 C.ar    1  UNL1        0.0354
     25 C          63.8270   87.1320   15.6581 C.ar    1  UNL1        0.0556
     26 N          63.2067   84.3842   13.2455 N.am    1  UNL1       -0.2994
     27 C          64.0874   84.9077   14.3409 C.2     1  UNL1        0.2486
     28 O          65.5658   84.6575   14.2989 O.2     1  UNL1       -0.2700
     29 H          62.2364   84.5485   13.2731 H       1  UNL1        0.1498
     30 C          63.8042   83.6105   12.1078 C.3     1  UNL1        0.1068
     31 C          63.7724   82.1109   12.1221 C.3     1  UNL1        0.0901
     32 C          62.2332   80.9243   13.8461 C.3     1  UNL1        0.0859
     33 N          63.5978   81.3766   13.4183 N.3     1  UNL1       -0.2949
     34 H          64.1814   80.5417   13.3647 H       1  UNL1        0.1233
@<TRIPOS>BOND
     1    32    33    1
     2    33    31    1
     3    31    30    1
     4    30    26    1
     5    26    27   am
     6    27    28    2
     7    27    20    1
     8    20    21   ar
     9    21    22   ar
    10    22    23   ar
    11    23    24   ar
    12    24    25   ar
    13    25     1    1
    14     1     3    1
    15     3     4    2
    16     4     5    1
    17     5    12    1
    18    12    13   ar
    19    13    14   ar
    20    14    15   ar
    21    15    16    1
    22    15    17   ar
    23    17    18   ar
    24    18    19    1
    25     5     6    2
    26     6     7    1
    27     7     8    2
    28     8     9    1
    29     9    10    2
    30    10    11    1
    31    25    20   ar
    32    11     3    1
    33    18    12   ar
    34    11     7    1
    35    33    34    1
    36    26    29    1
    37     1     2    1
@<TRIPOS>MOLECULE
*****
 34 37 0 0 0
SMALL
GASTEIGER

@<TRIPOS>ATOM
      1 N          62.3090   90.0356   11.3063 N.pl3   1  UNL1       -0.3148
      2 H          61.9527   90.8427   10.8694 H       1  UNL1        0.1520
      3 C          61.9603   88.6779   10.7723 C.2     1  UNL1        0.0450
      4 C          62.5411   87.4499   11.4084 C.2     1  UNL1        0.0577
      5 C          62.1926   86.0923   10.8745 C.2     1  UNL1        0.1962
      6 N          61.2631   85.9625    9.7043 N.2     1  UNL1       -0.0378
      7 C          60.6823   87.1905    9.0681 C.2     1  UNL1        0.3604
      8 N          59.7453   87.3740    7.9112 N.2     1  UNL1       -0.0343
      9 C          59.5148   88.8450    7.7303 C.2     1  UNL1        0.2321
     10 C          60.3093   89.5708    8.7753 C.2     1  UNL1        0.0421
     11 C          61.0309   88.5482    9.6021 C.3     1  UNL1        0.1734
     12 C          62.7734   84.8643   11.5107 C.ar    1  UNL1        0.0706
     13 C          62.6287   84.6448   12.9875 C.ar    1  UNL1        0.0083
     14 C          63.2095   83.4168   13.6237 C.ar    1  UNL1        0.0299
     15 C          63.9350   82.4084   12.7831 C.ar    1  UNL1        0.1424
     16 F          64.5159   81.1804   13.4192 F       1  UNL1       -0.2041
     17 C          64.0797   82.6279   11.3063 C.ar    1  UNL1        0.0594
     18 C          63.4989   83.8558   10.6701 C.ar    1  UNL1        0.1459
     19 F          63.6436   84.0754    9.1933 F       1  UNL1       -0.2040
     20 C          64.3522   91.1242   12.4853 C.ar    1  UNL1        0.0858
     21 C          65.2436   91.2521   13.6848 C.ar    1  UNL1        0.1046
     22 N          64.9832   90.4193   14.9050 N.ar    1  UNL1       -0.2421
     23 C          63.8315   89.4587   14.9256 C.ar    1  UNL1        0.1002
     24 C          62.9400   89.3307   13.7259 C.ar    1  UNL1        0.0354
     25 C          63.2004   90.1635   12.5059 C.ar    1  UNL1        0.0556
     26 N          65.7858   92.8909   11.2310 N.am    1  UNL1       -0.2994
     27 C          64.6126   91.9570   11.2652 C.2     1  UNL1        0.2486
     28 O          63.6997   91.8558   10.0792 O.2     1  UNL1       -0.2700
     29 H          66.3849   92.9574   12.0094 H       1  UNL1        0.1498
     30 C          66.0462   93.7237   10.0109 C.3     1  UNL1        0.1068
     31 C          67.2960   94.5481    9.9181 C.3     1  UNL1        0.0901
     32 C          68.6164   92.4762    9.0734 C.3     1  UNL1        0.0859
     33 N          68.5963   93.8997    9.5456 N.3     1  UNL1       -0.2949
     34 H          69.0032   94.4633    8.7992 H       1  UNL1        0.1233
@<TRIPOS>BOND
     1    32    33    1
     2    33    31    1
     3    31    30    1
     4    30    26    1
     5    26    27   am
     6    27    28    2
     7    27    20    1
     8    20    21   ar
     9    21    22   ar
    10    22    23   ar
    11    23    24   ar
    12    24    25   ar
    13    25     1    1
    14     1     3    1
    15     3     4    2
    16     4     5    1
    17     5    12    1
    18    12    13   ar
    19    13    14   ar
    20    14    15   ar
    21    15    16    1
    22    15    17   ar
    23    17    18   ar
    24    18    19    1
    25     5     6    2
    26     6     7    1
    27     7     8    2
    28     8     9    1
    29     9    10    2
    30    10    11    1
    31    25    20   ar
    32    11     3    1
    33    18    12   ar
    34    11     7    1
    35    33    34    1
    36    26    29    1
    37     1     2    1
@<TRIPOS>MOLECULE
*****
 34 37 0 0 0
SMALL
GASTEIGER

@<TRIPOS>ATOM
      1 N          64.2890   87.9267   13.8092 N.pl3   1  UNL1       -0.3148
      2 H          65.1774   88.2579   14.0742 H       1  UNL1        0.1520
      3 C          63.7183   86.7040   14.4644 C.2     1  UNL1        0.0450
      4 C          63.6150   85.4201   13.6955 C.2     1  UNL1        0.0577
      5 C          63.0443   84.1975   14.3506 C.2     1  UNL1        0.1962
      6 N          62.5768   84.2585   15.7747 N.2     1  UNL1       -0.0378
      7 C          62.6801   85.5423   16.5435 C.2     1  UNL1        0.3604
      8 N          62.3037   85.9029   17.9500 N.2     1  UNL1       -0.0343
      9 C          62.6419   87.3486   18.1641 C.2     1  UNL1        0.2321
     10 C          63.2272   87.8814   16.8900 C.2     1  UNL1        0.0421
     11 C          63.2508   86.7651   15.8883 C.3     1  UNL1        0.1734
     12 C          62.9410   82.9136   13.5817 C.ar    1  UNL1        0.0706
     13 C          62.5093   81.6561   14.2763 C.ar    1  UNL1        0.0083
     14 C          62.4060   80.3723   13.5075 C.ar    1  UNL1        0.0299
     15 C          62.7344   80.3459   12.0441 C.ar    1  UNL1        0.1424
     16 F          62.6312   79.0622   11.2752 F       1  UNL1       -0.2041
     17 C          63.1661   81.6034   11.3495 C.ar    1  UNL1        0.0594
     18 C          63.2694   82.8873   12.1184 C.ar    1  UNL1        0.1459
     19 F          63.7010   84.1448   11.4239 F       1  UNL1       -0.2040
     20 C          63.4538   90.1439   12.7432 C.ar    1  UNL1        0.0858
     21 C          62.6709   90.8620   11.6842 C.ar    1  UNL1        0.1046
     22 N          61.9404   90.0810   10.6323 N.ar    1  UNL1       -0.2421
     23 C          61.9928   88.5820   10.6393 C.ar    1  UNL1        0.1002
     24 C          62.7757   87.8638   11.6983 C.ar    1  UNL1        0.0354
     25 C          63.5061   88.6448   12.7502 C.ar    1  UNL1        0.0556
     26 N          65.5826   91.4028   13.5387 N.am    1  UNL1       -0.2994
     27 C          64.1842   90.9249   13.7951 C.2     1  UNL1        0.2486
     28 O          63.5160   91.2279   15.1035 O.2     1  UNL1       -0.2700
     29 H          66.0211   91.2039   12.6799 H       1  UNL1        0.1498
     30 C          66.3130   92.1838   14.5906 C.3     1  UNL1        0.1068
     31 C          66.6944   93.6119   14.3351 C.3     1  UNL1        0.0901
     32 C          66.3834   94.2260   11.8300 C.3     1  UNL1        0.0859
     33 N          65.9912   94.3966   13.2676 N.3     1  UNL1       -0.2949
     34 H          65.0010   94.1605   13.3326 H       1  UNL1        0.1233
@<TRIPOS>BOND
     1    32    33    1
     2    33    31    1
     3    31    30    1
     4    30    26    1
     5    26    27   am
     6    27    28    2
     7    27    20    1
     8    20    21   ar
     9    21    22   ar
    10    22    23   ar
    11    23    24   ar
    12    24    25   ar
    13    25     1    1
    14     1     3    1
    15     3     4    2
    16     4     5    1
    17     5    12    1
    18    12    13   ar
    19    13    14   ar
    20    14    15   ar
    21    15    16    1
    22    15    17   ar
    23    17    18   ar
    24    18    19    1
    25     5     6    2
    26     6     7    1
    27     7     8    2
    28     8     9    1
    29     9    10    2
    30    10    11    1
    31    25    20   ar
    32    11     3    1
    33    18    12   ar
    34    11     7    1
    35    33    34    1
    36    26    29    1
    37     1     2    1
@<TRIPOS>MOLECULE
*****
 34 37 0 0 0
SMALL
GASTEIGER

@<TRIPOS>ATOM
      1 N          64.0719   89.8886   12.6358 N.pl3   1  UNL1       -0.3148
      2 H          64.6661   90.3103   11.9737 H       1  UNL1        0.1520
      3 C          63.1646   88.7678   12.2227 C.2     1  UNL1        0.0450
      4 C          63.4807   87.3587   12.6282 C.2     1  UNL1        0.0577
      5 C          62.5735   86.2379   12.2151 C.2     1  UNL1        0.1962
      6 N          61.3499   86.5262   11.3966 N.2     1  UNL1       -0.0378
      7 C          61.0337   87.9354   10.9912 C.2     1  UNL1        0.3604
      8 N          59.9079   88.5210   10.1915 N.2     1  UNL1       -0.0343
      9 C          60.1195   90.0038   10.1103 C.2     1  UNL1        0.2321
     10 C          61.3760   90.3345   10.8598 C.2     1  UNL1        0.0421
     11 C          61.9411   89.0561   11.4043 C.3     1  UNL1        0.1734
     12 C          62.8897   84.8287   12.6206 C.ar    1  UNL1        0.0706
     13 C          62.7320   84.4067   14.0513 C.ar    1  UNL1        0.0083
     14 C          63.0482   82.9975   14.4568 C.ar    1  UNL1        0.0299
     15 C          63.5220   82.0105   13.4315 C.ar    1  UNL1        0.1424
     16 F          63.8382   80.6014   13.8369 F       1  UNL1       -0.2041
     17 C          63.6796   82.4326   12.0008 C.ar    1  UNL1        0.0594
     18 C          63.3635   83.8417   11.5953 C.ar    1  UNL1        0.1459
     19 F          63.5211   84.2638   10.1646 F       1  UNL1       -0.2040
     20 C          64.9773   91.4913   14.4692 C.ar    1  UNL1        0.0858
     21 C          64.9793   91.9695   15.8910 C.ar    1  UNL1        0.1046
     22 N          64.0779   91.3231   16.9010 N.ar    1  UNL1       -0.2421
     23 C          63.1747   90.1987   16.4892 C.ar    1  UNL1        0.1002
     24 C          63.1726   89.7204   15.0674 C.ar    1  UNL1        0.0354
     25 C          64.0739   90.3668   14.0575 C.ar    1  UNL1        0.0556
     26 N          65.3271   93.1533   12.5033 N.am    1  UNL1       -0.2994
     27 C          65.8785   92.1376   13.4593 C.2     1  UNL1        0.2486
     28 O          67.3314   91.7681   13.4055 O.2     1  UNL1       -0.2700
     29 H          64.3736   93.3958   12.5387 H       1  UNL1        0.1498
     30 C          66.2284   93.7997   11.4934 C.3     1  UNL1        0.1068
     31 C          66.6988   93.0209   10.3008 C.3     1  UNL1        0.0901
     32 C          68.9975   92.4866    9.2145 C.3     1  UNL1        0.0859
     33 N          68.0214   92.3145   10.3403 N.3     1  UNL1       -0.2949
     34 H          68.4945   92.6226   11.1898 H       1  UNL1        0.1233
@<TRIPOS>BOND
     1    32    33    1
     2    33    31    1
     3    31    30    1
     4    30    26    1
     5    26    27   am
     6    27    28    2
     7    27    20    1
     8    20    21   ar
     9    21    22   ar
    10    22    23   ar
    11    23    24   ar
    12    24    25   ar
    13    25     1    1
    14     1     3    1
    15     3     4    2
    16     4     5    1
    17     5    12    1
    18    12    13   ar
    19    13    14   ar
    20    14    15   ar
    21    15    16    1
    22    15    17   ar
    23    17    18   ar
    24    18    19    1
    25     5     6    2
    26     6     7    1
    27     7     8    2
    28     8     9    1
    29     9    10    2
    30    10    11    1
    31    25    20   ar
    32    11     3    1
    33    18    12   ar
    34    11     7    1
    35    33    34    1
    36    26    29    1
    37     1     2    1
@<TRIPOS>MOLECULE
*****
 34 37 0 0 0
SMALL
GASTEIGER

@<TRIPOS>ATOM
      1 N          62.6967   87.3900   10.2674 N.pl3   1  UNL1       -0.3148
      2 H          62.9477   88.3357   10.1590 H       1  UNL1        0.1520
      3 C          62.9415   86.6939   11.5733 C.2     1  UNL1        0.0450
      4 C          62.7058   85.2173   11.6919 C.2     1  UNL1        0.0577
      5 C          62.9506   84.5212   12.9978 C.2     1  UNL1        0.1962
      6 N          63.4311   85.3017   14.1853 N.2     1  UNL1       -0.0378
      7 C          63.6667   86.7783   14.0667 C.2     1  UNL1        0.3604
      8 N          64.1355   87.8026   15.0572 N.2     1  UNL1       -0.0343
      9 C          64.1805   89.1317   14.3634 C.2     1  UNL1        0.2321
     10 C          63.7394   88.9289   12.9441 C.2     1  UNL1        0.0421
     11 C          63.4219   87.4744   12.7608 C.3     1  UNL1        0.1734
     12 C          62.7150   83.0445   13.1163 C.ar    1  UNL1        0.0706
     13 C          61.9050   82.5034   14.2571 C.ar    1  UNL1        0.0083
     14 C          61.6694   81.0268   14.3756 C.ar    1  UNL1        0.0299
     15 C          62.2437   80.0913   13.3534 C.ar    1  UNL1        0.1424
     16 F          62.0081   78.6147   13.4719 F       1  UNL1       -0.2041
     17 C          63.0536   80.6323   12.2127 C.ar    1  UNL1        0.0594
     18 C          63.2893   82.1089   12.0941 C.ar    1  UNL1        0.1459
     19 F          64.0992   82.6501   10.9534 F       1  UNL1       -0.2040
     20 C          60.6649   86.9619    8.7058 C.ar    1  UNL1        0.0858
     21 C          60.0376   86.2170    7.5649 C.ar    1  UNL1        0.1046
     22 N          60.8149   85.1553    6.8447 N.ar    1  UNL1       -0.2421
     23 C          62.2193   84.8385    7.2654 C.ar    1  UNL1        0.1002
     24 C          62.8467   85.5834    8.4063 C.ar    1  UNL1        0.0354
     25 C          62.0694   86.6451    9.1265 C.ar    1  UNL1        0.0556
     26 N          59.6619   87.9149   10.9048 N.am    1  UNL1       -0.2994
     27 C          59.8876   88.0236    9.4260 C.2     1  UNL1        0.2486
     28 O          59.3361   89.1942    8.6671 O.2     1  UNL1       -0.2700
     29 H          60.0239   87.1466   11.4028 H       1  UNL1        0.1498
     30 C          58.8846   88.9766   11.6250 C.3     1  UNL1        0.1068
     31 C          59.5244   90.2991   11.9280 C.3     1  UNL1        0.0901
     32 C          61.7804   90.8524   10.7645 C.3     1  UNL1        0.0859
     33 N          60.2933   91.0221   10.8623 N.3     1  UNL1       -0.2949
     34 H          59.9039   90.7273    9.9668 H       1  UNL1        0.1233
@<TRIPOS>BOND
     1    32    33    1
     2    33    31    1
     3    31    30    1
     4    30    26    1
     5    26    27   am
     6    27    28    2
     7    27    20    1
     8    20    21   ar
     9    21    22   ar
    10    22    23   ar
    11    23    24   ar
    12    24    25   ar
    13    25     1    1
    14     1     3    1
    15     3     4    2
    16     4     5    1
    17     5    12    1
    18    12    13   ar
    19    13    14   ar
    20    14    15   ar
    21    15    16    1
    22    15    17   ar
    23    17    18   ar
    24    18    19    1
    25     5     6    2
    26     6     7    1
    27     7     8    2
    28     8     9    1
    29     9    10    2
    30    10    11    1
    31    25    20   ar
    32    11     3    1
    33    18    12   ar
    34    11     7    1
    35    33    34    1
    36    26    29    1
    37     1     2    1
@<TRIPOS>MOLECULE
*****
 34 37 0 0 0
SMALL
GASTEIGER

@<TRIPOS>ATOM
      1 N          63.7601   87.3226   13.8835 N.pl3   1  UNL1       -0.3148
      2 H          63.8057   86.5918   13.2254 H       1  UNL1        0.1520
      3 C          64.0266   88.7352   13.4551 C.2     1  UNL1        0.0450
      4 C          65.0954   89.5369   14.1371 C.2     1  UNL1        0.0577
      5 C          65.3618   90.9494   13.7087 C.2     1  UNL1        0.1962
      6 N          64.5595   91.5605   12.5983 N.2     1  UNL1       -0.0378
      7 C          63.4907   90.7589   11.9163 C.2     1  UNL1        0.3604
      8 N          62.5456   91.0908   10.7998 N.2     1  UNL1       -0.0343
      9 C          61.6951   89.8833   10.5381 C.2     1  UNL1        0.2321
     10 C          62.1145   88.8051   11.4929 C.2     1  UNL1        0.0421
     11 C          63.2242   89.3463   12.3447 C.3     1  UNL1        0.1734
     12 C          66.4307   91.7510   14.3907 C.ar    1  UNL1        0.0706
     13 C          66.1769   92.3387   15.7473 C.ar    1  UNL1        0.0083
     14 C          67.2457   93.1403   16.4293 C.ar    1  UNL1        0.0299
     15 C          68.5682   93.3542   15.7547 C.ar    1  UNL1        0.1424
     16 F          69.6371   94.1558   16.4366 F       1  UNL1       -0.2041
     17 C          68.8220   92.7665   14.3982 C.ar    1  UNL1        0.0594
     18 C          67.7533   91.9649   13.7162 C.ar    1  UNL1        0.1459
     19 F          68.0070   91.3772   12.3596 F       1  UNL1       -0.2040
     20 C          63.3100   85.6010   15.7764 C.ar    1  UNL1        0.0858
     21 C          62.9741   85.3019   17.2074 C.ar    1  UNL1        0.1046
     22 N          62.7524   86.4254   18.1764 N.ar    1  UNL1       -0.2421
     23 C          62.8667   87.8478   17.7144 C.ar    1  UNL1        0.1002
     24 C          63.2026   88.1469   16.2834 C.ar    1  UNL1        0.0354
     25 C          63.4242   87.0235   15.3145 C.ar    1  UNL1        0.0556
     26 N          62.9361   83.1273   15.0758 N.am    1  UNL1       -0.2994
     27 C          63.5316   84.4776   14.8075 C.2     1  UNL1        0.2486
     28 O          64.3488   84.7046   13.5703 O.2     1  UNL1       -0.2700
     29 H          62.3998   82.9784   15.8878 H       1  UNL1        0.1498
     30 C          63.1577   82.0039   14.1069 C.3     1  UNL1        0.1068
     31 C          62.3392   81.9228   12.8525 C.3     1  UNL1        0.0901
     32 C          64.0559   82.4763   10.9827 C.3     1  UNL1        0.0859
     33 N          62.9965   81.5782   11.5489 N.3     1  UNL1       -0.2949
     34 H          63.4224   80.6590   11.6678 H       1  UNL1        0.1233
@<TRIPOS>BOND
     1    32    33    1
     2    33    31    1
     3    31    30    1
     4    30    26    1
     5    26    27   am
     6    27    28    2
     7    27    20    1
     8    20    21   ar
     9    21    22   ar
    10    22    23   ar
    11    23    24   ar
    12    24    25   ar
    13    25     1    1
    14     1     3    1
    15     3     4    2
    16     4     5    1
    17     5    12    1
    18    12    13   ar
    19    13    14   ar
    20    14    15   ar
    21    15    16    1
    22    15    17   ar
    23    17    18   ar
    24    18    19    1
    25     5     6    2
    26     6     7    1
    27     7     8    2
    28     8     9    1
    29     9    10    2
    30    10    11    1
    31    25    20   ar
    32    11     3    1
    33    18    12   ar
    34    11     7    1
    35    33    34    1
    36    26    29    1
    37     1     2    1
@<TRIPOS>MOLECULE
*****
 34 37 0 0 0
SMALL
GASTEIGER

@<TRIPOS>ATOM
      1 N          62.6267   87.6913   10.2265 N.pl3   1  UNL1       -0.3148
      2 H          63.0844   88.5378   10.0184 H       1  UNL1        0.1520
      3 C          62.9105   86.9830   11.5179 C.2     1  UNL1        0.0450
      4 C          62.7063   85.5006   11.6209 C.2     1  UNL1        0.0577
      5 C          62.9901   84.7923   12.9122 C.2     1  UNL1        0.1962
      6 N          63.4780   85.5665   14.1008 N.2     1  UNL1       -0.0378
      7 C          63.6822   87.0489   13.9979 C.2     1  UNL1        0.3604
      8 N          64.1499   88.0691   14.9931 N.2     1  UNL1       -0.0343
      9 C          64.1552   89.4080   14.3167 C.2     1  UNL1        0.2321
     10 C          63.6908   89.2152   12.9034 C.2     1  UNL1        0.0421
     11 C          63.3984   87.7572   12.7064 C.3     1  UNL1        0.1734
     12 C          62.7859   83.3098   13.0151 C.ar    1  UNL1        0.0706
     13 C          63.1133   82.4249   11.8490 C.ar    1  UNL1        0.0083
     14 C          62.9091   80.9424   11.9520 C.ar    1  UNL1        0.0299
     15 C          62.3776   80.3448   13.2210 C.ar    1  UNL1        0.1424
     16 F          62.1734   78.8624   13.3240 F       1  UNL1       -0.2041
     17 C          62.0502   81.2298   14.3871 C.ar    1  UNL1        0.0594
     18 C          62.2544   82.7122   14.2841 C.ar    1  UNL1        0.1459
     19 F          61.9270   83.5972   15.4502 F       1  UNL1       -0.2040
     20 C          60.2216   87.5810    9.2501 C.ar    1  UNL1        0.0858
     21 C          59.2407   86.9995    8.2757 C.ar    1  UNL1        0.1046
     22 N          59.6838   85.9470    7.3031 N.ar    1  UNL1       -0.2421
     23 C          61.1078   85.4759    7.3050 C.ar    1  UNL1        0.1002
     24 C          62.0889   86.0574    8.2795 C.ar    1  UNL1        0.0354
     25 C          61.6458   87.1099    9.2520 C.ar    1  UNL1        0.0556
     26 N          59.3696   88.2457   11.6127 N.am    1  UNL1       -0.2994
     27 C          59.7785   88.6335   10.2227 C.2     1  UNL1        0.2486
     28 O          59.7442   90.0738    9.8050 O.2     1  UNL1       -0.2700
     29 H          59.3922   87.3004   11.8868 H       1  UNL1        0.1498
     30 C          58.9265   89.2982   12.5853 C.3     1  UNL1        0.1068
     31 C          58.4185   88.9017   13.9399 C.3     1  UNL1        0.0901
     32 C          56.0740   88.0461   13.2182 C.3     1  UNL1        0.0859
     33 N          57.3065   87.9024   14.0610 N.3     1  UNL1       -0.2949
     34 H          57.7063   86.9893   13.8447 H       1  UNL1        0.1233
@<TRIPOS>BOND
     1    32    33    1
     2    33    31    1
     3    31    30    1
     4    30    26    1
     5    26    27   am
     6    27    28    2
     7    27    20    1
     8    20    21   ar
     9    21    22   ar
    10    22    23   ar
    11    23    24   ar
    12    24    25   ar
    13    25     1    1
    14     1     3    1
    15     3     4    2
    16     4     5    1
    17     5    12    1
    18    12    13   ar
    19    13    14   ar
    20    14    15   ar
    21    15    16    1
    22    15    17   ar
    23    17    18   ar
    24    18    19    1
    25     5     6    2
    26     6     7    1
    27     7     8    2
    28     8     9    1
    29     9    10    2
    30    10    11    1
    31    25    20   ar
    32    11     3    1
    33    18    12   ar
    34    11     7    1
    35    33    34    1
    36    26    29    1
    37     1     2    1
