@<TRIPOS>MOLECULE
*****
 25 27 0 0 0
SMALL
GASTEIGER

@<TRIPOS>ATOM
      1 C          64.2695   82.1058   13.2958 C.3     1  UNL1        0.1363
      2 N          63.6355   83.2614   12.5798 N.ar    1  UNL1       -0.2669
      3 C          62.8615   84.2885   13.3518 C.ar    1  UNL1        0.2005
      4 N          62.2274   85.4441   12.6359 N.ar    1  UNL1       -0.2150
      5 C          62.3673   85.5726   11.1480 C.ar    1  UNL1        0.0890
      6 C          63.1413   84.5455   10.3760 C.ar    1  UNL1        0.0800
      7 C          63.7754   83.3899   11.0919 C.ar    1  UNL1        0.2645
      8 O          64.5494   82.3627   10.3199 O.2     1  UNL1       -0.2668
      9 C          61.7333   86.7282   10.4321 C.ar    1  UNL1        0.0210
     10 C          62.0650   88.1341   10.8361 C.ar    1  UNL1        0.0222
     11 C          61.4310   89.2897   10.1202 C.ar    1  UNL1        0.0989
     12 N          60.4651   89.0394    9.0002 N.ar    1  UNL1       -0.2423
     13 C          60.1334   87.6335    8.5961 C.ar    1  UNL1        0.0989
     14 C          60.7674   86.4779    9.3121 C.ar    1  UNL1        0.0222
     15 N          62.7215   84.1600   14.8398 N.pl3   1  UNL1       -0.2977
     16 H          62.0242   83.5784   15.2202 H       1  UNL1        0.1500
     17 C          63.6440   84.9176   15.7480 C.3     1  UNL1        0.1596
     18 C          63.1308   86.0910   16.5291 C.2     1  UNL1        0.1928
     19 O          62.2973   85.8684   17.7561 O.2     1  UNL1       -0.2895
     20 C          63.4513   87.4868   16.0831 C.ar    1  UNL1        0.0364
     21 C          63.0400   88.6568   16.9269 C.ar    1  UNL1        0.0029
     22 C          63.3604   90.0526   16.4809 C.ar    1  UNL1        0.0001
     23 C          64.0922   90.2785   15.1911 C.ar    1  UNL1        0.0000
     24 C          64.5035   89.1086   14.3473 C.ar    1  UNL1        0.0001
     25 C          64.1830   87.7127   14.7934 C.ar    1  UNL1        0.0029
@<TRIPOS>BOND
     1     1     2    1
     2     2     3   ar
     3     3    15    1
     4    15    17    1
     5    17    18    1
     6    18    19    2
     7    18    20    1
     8    20    21   ar
     9    21    22   ar
    10    22    23   ar
    11    23    24   ar
    12    24    25   ar
    13     3     4   ar
    14     4     5   ar
    15     5     9    1
    16     9    10   ar
    17    10    11   ar
    18    11    12   ar
    19    12    13   ar
    20    13    14   ar
    21     5     6   ar
    22     6     7   ar
    23     7     8    2
    24     7     2   ar
    25    25    20   ar
    26    14     9   ar
    27    15    16    1
@<TRIPOS>MOLECULE
*****
 25 27 0 0 0
SMALL
GASTEIGER

@<TRIPOS>ATOM
      1 C          60.1297   90.1199   10.1838 C.3     1  UNL1        0.1363
      2 N          60.7995   88.8030   10.4430 N.ar    1  UNL1       -0.2669
      3 C          61.7792   88.6691   11.5709 C.ar    1  UNL1        0.2005
      4 N          62.4491   87.3522   11.8302 N.ar    1  UNL1       -0.2150
      5 C          62.1392   86.1693   10.9615 C.ar    1  UNL1        0.0890
      6 C          61.1595   86.3032    9.8337 C.ar    1  UNL1        0.0800
      7 C          60.4896   87.6201    9.5744 C.ar    1  UNL1        0.2645
      8 O          59.5099   87.7539    8.4464 O.2     1  UNL1       -0.2668
      9 C          62.8090   84.8524   11.2208 C.ar    1  UNL1        0.0210
     10 C          63.4960   84.1273   10.1018 C.ar    1  UNL1        0.0222
     11 C          64.1658   82.8104   10.3611 C.ar    1  UNL1        0.0989
     12 N          64.1487   82.2187   11.7393 N.ar    1  UNL1       -0.2423
     13 C          63.4617   82.9439   12.8583 C.ar    1  UNL1        0.0989
     14 C          62.7919   84.2607   12.5990 C.ar    1  UNL1        0.0222
     15 N          62.0891   89.8521   12.4397 N.pl3   1  UNL1       -0.2977
     16 H          61.3620   90.4382   12.7509 H       1  UNL1        0.1500
     17 C          63.5070   90.1419   12.8342 C.3     1  UNL1        0.1596
     18 C          63.8943   90.1564   14.2833 C.2     1  UNL1        0.1928
     19 O          64.4122   91.4176   14.9086 O.2     1  UNL1       -0.2895
     20 C          63.7636   88.9097   15.1070 C.ar    1  UNL1        0.0364
     21 C          64.3323   87.6158   14.6046 C.ar    1  UNL1        0.0029
     22 C          64.2016   86.3690   15.4284 C.ar    1  UNL1        0.0001
     23 C          63.5022   86.4162   16.7546 C.ar    1  UNL1        0.0000
     24 C          62.9336   87.7101   17.2570 C.ar    1  UNL1        0.0001
     25 C          63.0643   88.9569   16.4332 C.ar    1  UNL1        0.0029
@<TRIPOS>BOND
     1     1     2    1
     2     2     3   ar
     3     3    15    1
     4    15    17    1
     5    17    18    1
     6    18    19    2
     7    18    20    1
     8    20    21   ar
     9    21    22   ar
    10    22    23   ar
    11    23    24   ar
    12    24    25   ar
    13     3     4   ar
    14     4     5   ar
    15     5     9    1
    16     9    10   ar
    17    10    11   ar
    18    11    12   ar
    19    12    13   ar
    20    13    14   ar
    21     5     6   ar
    22     6     7   ar
    23     7     8    2
    24     7     2   ar
    25    25    20   ar
    26    14     9   ar
    27    15    16    1
@<TRIPOS>MOLECULE
*****
 25 27 0 0 0
SMALL
GASTEIGER

@<TRIPOS>ATOM
      1 C          65.2063   90.5585   14.7973 C.3     1  UNL1        0.1363
      2 N          64.3641   90.0210   13.6785 N.ar    1  UNL1       -0.2669
      3 C          63.8878   88.5991   13.7146 C.ar    1  UNL1        0.2005
      4 N          63.0456   88.0616   12.5958 N.ar    1  UNL1       -0.2150
      5 C          62.6797   88.9460   11.4408 C.ar    1  UNL1        0.0890
      6 C          63.1561   90.3678   11.4046 C.ar    1  UNL1        0.0800
      7 C          63.9983   90.9053   12.5235 C.ar    1  UNL1        0.2645
      8 O          64.4746   92.3273   12.4873 O.2     1  UNL1       -0.2668
      9 C          61.8375   88.4084   10.3220 C.ar    1  UNL1        0.0210
     10 C          61.9712   86.9738    9.9051 C.ar    1  UNL1        0.0222
     11 C          61.1290   86.4363    8.7862 C.ar    1  UNL1        0.0989
     12 N          60.1531   87.3334    8.0843 N.ar    1  UNL1       -0.2423
     13 C          60.0195   88.7681    8.5012 C.ar    1  UNL1        0.0989
     14 C          60.8617   89.3056    9.6200 C.ar    1  UNL1        0.0222
     15 N          64.2536   87.7147   14.8697 N.pl3   1  UNL1       -0.2977
     16 H          64.3215   88.0921   15.7764 H       1  UNL1        0.1500
     17 C          64.5160   86.2553   14.6431 C.3     1  UNL1        0.1596
     18 C          63.4297   85.2508   14.8903 C.2     1  UNL1        0.1928
     19 O          62.5749   85.3574   16.1183 O.2     1  UNL1       -0.2895
     20 C          63.1983   84.1397   13.9096 C.ar    1  UNL1        0.0364
     21 C          63.0195   84.4501   12.4530 C.ar    1  UNL1        0.0029
     22 C          62.7881   83.3391   11.4723 C.ar    1  UNL1        0.0001
     23 C          62.7355   81.9174   11.9481 C.ar    1  UNL1        0.0000
     24 C          62.9143   81.6070   13.4047 C.ar    1  UNL1        0.0001
     25 C          63.1457   82.7182   14.3855 C.ar    1  UNL1        0.0029
@<TRIPOS>BOND
     1     1     2    1
     2     2     3   ar
     3     3    15    1
     4    15    17    1
     5    17    18    1
     6    18    19    2
     7    18    20    1
     8    20    21   ar
     9    21    22   ar
    10    22    23   ar
    11    23    24   ar
    12    24    25   ar
    13     3     4   ar
    14     4     5   ar
    15     5     9    1
    16     9    10   ar
    17    10    11   ar
    18    11    12   ar
    19    12    13   ar
    20    13    14   ar
    21     5     6   ar
    22     6     7   ar
    23     7     8    2
    24     7     2   ar
    25    25    20   ar
    26    14     9   ar
    27    15    16    1
@<TRIPOS>MOLECULE
*****
 25 27 0 0 0
SMALL
GASTEIGER

@<TRIPOS>ATOM
      1 C          63.9033   90.6106   15.6664 C.3     1  UNL1        0.1363
      2 N          64.5708   91.3176   14.5241 N.ar    1  UNL1       -0.2669
      3 C          64.0199   91.1851   13.1353 C.ar    1  UNL1        0.2005
      4 N          64.6873   91.8921   11.9931 N.ar    1  UNL1       -0.2150
      5 C          65.9056   92.7316   12.2397 C.ar    1  UNL1        0.0890
      6 C          66.4565   92.8641   13.6285 C.ar    1  UNL1        0.0800
      7 C          65.7891   92.1571   14.7707 C.ar    1  UNL1        0.2645
      8 O          66.3401   92.2897   16.1596 O.2     1  UNL1       -0.2668
      9 C          66.5731   93.4386   11.0975 C.ar    1  UNL1        0.0210
     10 C          67.4404   92.6711   10.1442 C.ar    1  UNL1        0.0222
     11 C          68.1078   93.3781    9.0020 C.ar    1  UNL1        0.0989
     12 N          67.9080   94.8526    8.8130 N.ar    1  UNL1       -0.2423
     13 C          67.0407   95.6202    9.7662 C.ar    1  UNL1        0.0989
     14 C          66.3733   94.9132   10.9085 C.ar    1  UNL1        0.0222
     15 N          62.8015   90.3456   12.8886 N.pl3   1  UNL1       -0.2977
     16 H          61.9838   90.4980   13.4154 H       1  UNL1        0.1500
     17 C          62.8289   89.2740   11.8395 C.3     1  UNL1        0.1596
     18 C          62.3408   89.5699   10.4522 C.2     1  UNL1        0.1928
     19 O          62.5780   90.9212    9.8460 O.2     1  UNL1       -0.2895
     20 C          61.6155   88.5144    9.6713 C.ar    1  UNL1        0.0364
     21 C          60.3162   88.8406    8.9966 C.ar    1  UNL1        0.0029
     22 C          59.5909   87.7851    8.2157 C.ar    1  UNL1        0.0001
     23 C          60.1649   86.4033    8.1095 C.ar    1  UNL1        0.0000
     24 C          61.4642   86.0771    8.7843 C.ar    1  UNL1        0.0001
     25 C          62.1895   87.1327    9.5652 C.ar    1  UNL1        0.0029
@<TRIPOS>BOND
     1     1     2    1
     2     2     3   ar
     3     3    15    1
     4    15    17    1
     5    17    18    1
     6    18    19    2
     7    18    20    1
     8    20    21   ar
     9    21    22   ar
    10    22    23   ar
    11    23    24   ar
    12    24    25   ar
    13     3     4   ar
    14     4     5   ar
    15     5     9    1
    16     9    10   ar
    17    10    11   ar
    18    11    12   ar
    19    12    13   ar
    20    13    14   ar
    21     5     6   ar
    22     6     7   ar
    23     7     8    2
    24     7     2   ar
    25    25    20   ar
    26    14     9   ar
    27    15    16    1
@<TRIPOS>MOLECULE
*****
 25 27 0 0 0
SMALL
GASTEIGER

@<TRIPOS>ATOM
      1 C          64.7285   84.0402   14.2166 C.3     1  UNL1        0.1363
      2 N          63.9034   84.6974   13.1502 N.ar    1  UNL1       -0.2669
      3 C          63.4414   86.1136   13.3256 C.ar    1  UNL1        0.2005
      4 N          62.6163   86.7708   12.2592 N.ar    1  UNL1       -0.2150
      5 C          62.2532   86.0119   11.0174 C.ar    1  UNL1        0.0890
      6 C          62.7153   84.5957   10.8420 C.ar    1  UNL1        0.0800
      7 C          63.5404   83.9384   11.9084 C.ar    1  UNL1        0.2645
      8 O          64.0024   82.5221   11.7330 O.2     1  UNL1       -0.2668
      9 C          61.4281   86.6691    9.9510 C.ar    1  UNL1        0.0210
     10 C          61.1630   88.1443   10.0103 C.ar    1  UNL1        0.0222
     11 C          60.3378   88.8015    8.9439 C.ar    1  UNL1        0.0989
     12 N          59.7779   87.9836    7.8182 N.ar    1  UNL1       -0.2423
     13 C          60.0430   86.5084    7.7588 C.ar    1  UNL1        0.0989
     14 C          60.8681   85.8512    8.8252 C.ar    1  UNL1        0.0222
     15 N          63.8044   86.8727   14.5675 N.pl3   1  UNL1       -0.2977
     16 H          63.5830   86.5031   15.4527 H       1  UNL1        0.1500
     17 C          64.5049   88.1947   14.4605 C.3     1  UNL1        0.1596
     18 C          63.7080   89.4540   14.2889 C.2     1  UNL1        0.1928
     19 O          62.5914   89.7704   15.2392 O.2     1  UNL1       -0.2895
     20 C          64.0277   90.3968   13.1669 C.ar    1  UNL1        0.0364
     21 C          63.2706   90.3093   11.8749 C.ar    1  UNL1        0.0029
     22 C          63.5903   91.2521   10.7530 C.ar    1  UNL1        0.0001
     23 C          64.6672   92.2824   10.9229 C.ar    1  UNL1        0.0000
     24 C          65.4244   92.3699   12.2149 C.ar    1  UNL1        0.0001
     25 C          65.1046   91.4270   13.3369 C.ar    1  UNL1        0.0029
@<TRIPOS>BOND
     1     1     2    1
     2     2     3   ar
     3     3    15    1
     4    15    17    1
     5    17    18    1
     6    18    19    2
     7    18    20    1
     8    20    21   ar
     9    21    22   ar
    10    22    23   ar
    11    23    24   ar
    12    24    25   ar
    13     3     4   ar
    14     4     5   ar
    15     5     9    1
    16     9    10   ar
    17    10    11   ar
    18    11    12   ar
    19    12    13   ar
    20    13    14   ar
    21     5     6   ar
    22     6     7   ar
    23     7     8    2
    24     7     2   ar
    25    25    20   ar
    26    14     9   ar
    27    15    16    1
@<TRIPOS>MOLECULE
*****
 25 27 0 0 0
SMALL
GASTEIGER

@<TRIPOS>ATOM
      1 C          60.1095   89.7600    9.6608 C.3     1  UNL1        0.1363
      2 N          60.8034   88.4870   10.0457 N.ar    1  UNL1       -0.2669
      3 C          61.6268   88.4307   11.2981 C.ar    1  UNL1        0.2005
      4 N          62.3207   87.1578   11.6829 N.ar    1  UNL1       -0.2150
      5 C          62.1912   85.9411   10.8153 C.ar    1  UNL1        0.0890
      6 C          61.3678   85.9974    9.5628 C.ar    1  UNL1        0.0800
      7 C          60.6739   87.2703    9.1780 C.ar    1  UNL1        0.2645
      8 O          59.8504   87.3266    7.9254 O.2     1  UNL1       -0.2668
      9 C          62.8851   84.6681   11.2001 C.ar    1  UNL1        0.0210
     10 C          62.9287   84.2427   12.6378 C.ar    1  UNL1        0.0222
     11 C          63.6226   82.9698   13.0226 C.ar    1  UNL1        0.0989
     12 N          64.2730   82.1222   11.9697 N.ar    1  UNL1       -0.2423
     13 C          64.2294   82.5476   10.5320 C.ar    1  UNL1        0.0989
     14 C          63.5355   83.8206   10.1472 C.ar    1  UNL1        0.0222
     15 N          61.7564   89.6474   12.1659 N.pl3   1  UNL1       -0.2977
     16 H          60.9828   89.9669   12.6843 H       1  UNL1        0.1500
     17 C          63.0645   90.3772   12.2438 C.3     1  UNL1        0.1596
     18 C          63.8840   90.3159   13.4987 C.2     1  UNL1        0.1928
     19 O          63.7078   89.1733   14.4544 O.2     1  UNL1       -0.2895
     20 C          64.8797   91.3972   13.7978 C.ar    1  UNL1        0.0364
     21 C          65.3161   92.3360   12.7124 C.ar    1  UNL1        0.0029
     22 C          66.3118   93.4173   13.0115 C.ar    1  UNL1        0.0001
     23 C          66.8711   93.5597   14.3961 C.ar    1  UNL1        0.0000
     24 C          66.4346   92.6209   15.4815 C.ar    1  UNL1        0.0001
     25 C          65.4389   91.5396   15.1823 C.ar    1  UNL1        0.0029
@<TRIPOS>BOND
     1     1     2    1
     2     2     3   ar
     3     3    15    1
     4    15    17    1
     5    17    18    1
     6    18    19    2
     7    18    20    1
     8    20    21   ar
     9    21    22   ar
    10    22    23   ar
    11    23    24   ar
    12    24    25   ar
    13     3     4   ar
    14     4     5   ar
    15     5     9    1
    16     9    10   ar
    17    10    11   ar
    18    11    12   ar
    19    12    13   ar
    20    13    14   ar
    21     5     6   ar
    22     6     7   ar
    23     7     8    2
    24     7     2   ar
    25    25    20   ar
    26    14     9   ar
    27    15    16    1
@<TRIPOS>MOLECULE
*****
 25 27 0 0 0
SMALL
GASTEIGER

@<TRIPOS>ATOM
      1 C          60.5113   86.8194    9.6590 C.3     1  UNL1        0.1363
      2 N          61.3849   87.7886   10.3990 N.ar    1  UNL1       -0.2669
      3 C          62.2733   87.3034   11.5059 C.ar    1  UNL1        0.2005
      4 N          63.1469   88.2725   12.2459 N.ar    1  UNL1       -0.2150
      5 C          63.1321   89.7268   11.8789 C.ar    1  UNL1        0.0890
      6 C          62.2438   90.2120   10.7720 C.ar    1  UNL1        0.0800
      7 C          61.3701   89.2429   10.0320 C.ar    1  UNL1        0.2645
      8 O          60.4817   89.7281    8.9250 O.2     1  UNL1       -0.2668
      9 C          64.0057   90.6960   12.6189 C.ar    1  UNL1        0.0210
     10 C          64.2146   90.5406   14.0961 C.ar    1  UNL1        0.0222
     11 C          65.0882   91.5097   14.8361 C.ar    1  UNL1        0.0989
     12 N          65.7529   92.6343   14.0989 N.ar    1  UNL1       -0.2423
     13 C          65.5441   92.7896   12.6217 C.ar    1  UNL1        0.0989
     14 C          64.6705   91.8205   11.8817 C.ar    1  UNL1        0.0222
     15 N          62.2880   85.8490   11.8729 N.pl3   1  UNL1       -0.2977
     16 H          61.6987   85.2165   11.4019 H       1  UNL1        0.1500
     17 C          63.2007   85.3584   12.9575 C.3     1  UNL1        0.1596
     18 C          62.7204   84.3227   13.9305 C.2     1  UNL1        0.1928
     19 O          62.3420   84.7227   15.3257 O.2     1  UNL1       -0.2895
     20 C          62.6185   82.8870   13.5082 C.ar    1  UNL1        0.0364
     21 C          63.2506   82.4361   12.2248 C.ar    1  UNL1        0.0029
     22 C          63.1488   81.0004   11.8025 C.ar    1  UNL1        0.0001
     23 C          62.4148   80.0155   12.6636 C.ar    1  UNL1        0.0000
     24 C          61.7827   80.4665   13.9470 C.ar    1  UNL1        0.0001
     25 C          61.8846   81.9023   14.3693 C.ar    1  UNL1        0.0029
@<TRIPOS>BOND
     1     1     2    1
     2     2     3   ar
     3     3    15    1
     4    15    17    1
     5    17    18    1
     6    18    19    2
     7    18    20    1
     8    20    21   ar
     9    21    22   ar
    10    22    23   ar
    11    23    24   ar
    12    24    25   ar
    13     3     4   ar
    14     4     5   ar
    15     5     9    1
    16     9    10   ar
    17    10    11   ar
    18    11    12   ar
    19    12    13   ar
    20    13    14   ar
    21     5     6   ar
    22     6     7   ar
    23     7     8    2
    24     7     2   ar
    25    25    20   ar
    26    14     9   ar
    27    15    16    1
@<TRIPOS>MOLECULE
*****
 25 27 0 0 0
SMALL
GASTEIGER

@<TRIPOS>ATOM
      1 C          60.6236   87.6747    8.2311 C.3     1  UNL1        0.1363
      2 N          61.1994   86.8584    9.3501 N.ar    1  UNL1       -0.2669
      3 C          60.9220   87.2375   10.7746 C.ar    1  UNL1        0.2005
      4 N          61.4978   86.4212   11.8936 N.ar    1  UNL1       -0.2150
      5 C          62.3509   85.2259   11.5881 C.ar    1  UNL1        0.0890
      6 C          62.6283   84.8469   10.1636 C.ar    1  UNL1        0.0800
      7 C          62.0525   85.6632    9.0446 C.ar    1  UNL1        0.2645
      8 O          62.3300   85.2841    7.6200 O.2     1  UNL1       -0.2668
      9 C          62.9267   84.4097   12.7071 C.ar    1  UNL1        0.0210
     10 C          63.7386   85.0739   13.7793 C.ar    1  UNL1        0.0222
     11 C          64.3144   84.2577   14.8983 C.ar    1  UNL1        0.0989
     12 N          64.0783   82.7772   14.9452 N.ar    1  UNL1       -0.2423
     13 C          63.2663   82.1129   13.8731 C.ar    1  UNL1        0.0989
     14 C          62.6906   82.9292   12.7540 C.ar    1  UNL1        0.0222
     15 N          60.0688   88.4328   11.0802 N.pl3   1  UNL1       -0.2977
     16 H          59.0983   88.3992   10.9182 H       1  UNL1        0.1500
     17 C          60.6943   89.6792   11.6325 C.3     1  UNL1        0.1596
     18 C          62.0886   90.0599   11.2313 C.2     1  UNL1        0.1928
     19 O          62.4169   90.2891    9.7857 O.2     1  UNL1       -0.2895
     20 C          63.1546   90.2114   12.2756 C.ar    1  UNL1        0.0364
     21 C          63.3745   89.1248   13.2860 C.ar    1  UNL1        0.0029
     22 C          64.4405   89.2763   14.3303 C.ar    1  UNL1        0.0001
     23 C          65.2867   90.5144   14.3643 C.ar    1  UNL1        0.0000
     24 C          65.0668   91.6011   13.3539 C.ar    1  UNL1        0.0001
     25 C          64.0007   91.4495   12.3096 C.ar    1  UNL1        0.0029
@<TRIPOS>BOND
     1     1     2    1
     2     2     3   ar
     3     3    15    1
     4    15    17    1
     5    17    18    1
     6    18    19    2
     7    18    20    1
     8    20    21   ar
     9    21    22   ar
    10    22    23   ar
    11    23    24   ar
    12    24    25   ar
    13     3     4   ar
    14     4     5   ar
    15     5     9    1
    16     9    10   ar
    17    10    11   ar
    18    11    12   ar
    19    12    13   ar
    20    13    14   ar
    21     5     6   ar
    22     6     7   ar
    23     7     8    2
    24     7     2   ar
    25    25    20   ar
    26    14     9   ar
    27    15    16    1
@<TRIPOS>MOLECULE
*****
 25 27 0 0 0
SMALL
GASTEIGER

@<TRIPOS>ATOM
      1 C          59.9808   86.3672    8.2528 C.3     1  UNL1        0.1363
      2 N          60.7685   87.2965    9.1280 N.ar    1  UNL1       -0.2669
      3 C          61.7148   86.7415   10.1510 C.ar    1  UNL1        0.2005
      4 N          62.5025   87.6708   11.0261 N.ar    1  UNL1       -0.2150
      5 C          62.3441   89.1550   10.8783 C.ar    1  UNL1        0.0890
      6 C          61.3978   89.7100    9.8553 C.ar    1  UNL1        0.0800
      7 C          60.6101   88.7807    8.9801 C.ar    1  UNL1        0.2645
      8 O          59.6638   89.3358    7.9571 O.2     1  UNL1       -0.2668
      9 C          63.1318   90.0842   11.7535 C.ar    1  UNL1        0.0210
     10 C          63.8887   91.2270   11.1442 C.ar    1  UNL1        0.0222
     11 C          64.6765   92.1562   12.0194 C.ar    1  UNL1        0.0989
     12 N          64.7074   91.9428   13.5038 N.ar    1  UNL1       -0.2423
     13 C          63.9505   90.8000   14.1130 C.ar    1  UNL1        0.0989
     14 C          63.1627   89.8708   13.2378 C.ar    1  UNL1        0.0222
     15 N          61.8733   85.2572   10.2989 N.pl3   1  UNL1       -0.2977
     16 H          61.1286   84.7148   10.6460 H       1  UNL1        0.1500
     17 C          63.1663   84.5994    9.9178 C.3     1  UNL1        0.1596
     18 C          63.7387   83.5142   10.7810 C.2     1  UNL1        0.1928
     19 O          64.7328   82.5473   10.2095 O.2     1  UNL1       -0.2895
     20 C          63.3169   83.3961   12.2156 C.ar    1  UNL1        0.0364
     21 C          62.5811   82.1753   12.6829 C.ar    1  UNL1        0.0029
     22 C          62.1593   82.0572   14.1175 C.ar    1  UNL1        0.0001
     23 C          62.4732   83.1598   15.0848 C.ar    1  UNL1        0.0000
     24 C          63.2089   84.3806   14.6175 C.ar    1  UNL1        0.0001
     25 C          63.6308   84.4987   13.1828 C.ar    1  UNL1        0.0029
@<TRIPOS>BOND
     1     1     2    1
     2     2     3   ar
     3     3    15    1
     4    15    17    1
     5    17    18    1
     6    18    19    2
     7    18    20    1
     8    20    21   ar
     9    21    22   ar
    10    22    23   ar
    11    23    24   ar
    12    24    25   ar
    13     3     4   ar
    14     4     5   ar
    15     5     9    1
    16     9    10   ar
    17    10    11   ar
    18    11    12   ar
    19    12    13   ar
    20    13    14   ar
    21     5     6   ar
    22     6     7   ar
    23     7     8    2
    24     7     2   ar
    25    25    20   ar
    26    14     9   ar
    27    15    16    1
