@<TRIPOS>MOLECULE
*****
 33 37 0 0 0
SMALL
GASTEIGER

@<TRIPOS>ATOM
      1 C          62.9748   86.5390   12.4622 C.2     1  UNL1        0.2506
      2 O          63.5883   87.4658   13.4695 O.2     1  UNL1       -0.2699
      3 N          61.9949   87.0667   11.4566 N.am    1  UNL1       -0.2723
      4 C          61.3815   86.1399   10.4493 C.3     1  UNL1        0.1257
      5 C          60.4015   86.6676    9.4437 C.3     1  UNL1        0.1637
      6 O          60.0350   88.1221    9.4454 O.3     1  UNL1       -0.3502
      7 C          60.6484   89.0489   10.4528 C.3     1  UNL1        0.1622
      8 C          61.6283   88.5213   11.4583 C.3     1  UNL1        0.1097
      9 C          64.2892   82.2326    9.8684 C.3     1  UNL1        0.0310
     10 C          63.9986   82.9313   11.1635 C.ar    1  UNL1       -0.0216
     11 C          64.0745   82.1754   12.4569 C.ar    1  UNL1       -0.0026
     12 C          63.7838   82.8741   13.7520 C.ar    1  UNL1        0.0207
     13 C          63.4173   84.3286   13.7538 C.ar    1  UNL1        0.1072
     14 C          63.3414   85.0844   12.4604 C.ar    1  UNL1        0.0726
     15 C          63.6320   84.3858   11.1653 C.ar    1  UNL1        0.0018
     16 N          63.1267   85.0272   15.0490 N.ar    1  UNL1       -0.1477
     17 N          64.1094   85.8102   15.8683 N.ar    1  UNL1       -0.1447
     18 C          63.3924   86.3325   17.0779 C.ar    1  UNL1        0.1446
     19 C          61.9665   85.8722   17.0062 C.ar    1  UNL1        0.1446
     20 N          61.8023   85.0655   15.7523 N.ar    1  UNL1       -0.1447
     21 C          62.2418   89.4481   12.4657 C.3     1  UNL1        0.0510
     22 C          63.2686   90.4523   12.0332 C.ar    1  UNL1        0.0071
     23 C          64.3129   90.9220   13.0021 C.ar    1  UNL1        0.0012
     24 C          65.3398   91.9263   12.5697 C.ar    1  UNL1        0.0389
     25 C          65.3224   92.4608   11.1683 C.ar    1  UNL1        0.0054
     26 C          64.2780   91.9911   10.1993 C.ar    1  UNL1        0.0294
     27 C          63.2512   90.9869   10.6318 C.ar    1  UNL1        0.1362
     28 F          62.2069   90.5172    9.6628 F       1  UNL1       -0.2045
     29 C          66.3840   92.3959   13.5386 C.ar    1  UNL1        0.2037
     30 N          66.1274   93.0833   14.8469 N.ar    1  UNL1       -0.1829
     31 C          67.4530   93.3729   15.4862 C.ar    1  UNL1        0.3164
     32 O          68.5290   92.8645   14.5731 O.2     1  UNL1       -0.3274
     33 N          67.8683   92.2607   13.3694 N.ar    1  UNL1       -0.0554
@<TRIPOS>BOND
     1     9    10    1
     2    10    11   ar
     3    11    12   ar
     4    12    13   ar
     5    13    16    1
     6    16    17   ar
     7    17    18   ar
     8    18    19   ar
     9    19    20   ar
    10    13    14   ar
    11    14     1    1
    12     1     2    2
    13     1     3   am
    14     3     4    1
    15     4     5    1
    16     5     6    1
    17     6     7    1
    18     7     8    1
    19     8    21    1
    20    21    22    1
    21    22    23   ar
    22    23    24   ar
    23    24    29    1
    24    29    30   ar
    25    30    31   ar
    26    31    32   ar
    27    32    33   ar
    28    24    25   ar
    29    25    26   ar
    30    26    27   ar
    31    27    28    1
    32    14    15   ar
    33    15    10   ar
    34    20    16   ar
    35     8     3    1
    36    27    22   ar
    37    33    29   ar
@<TRIPOS>MOLECULE
*****
 33 37 0 0 0
SMALL
GASTEIGER

@<TRIPOS>ATOM
      1 C          62.7393   87.2737   11.8148 C.2     1  UNL1        0.2506
      2 O          63.4114   87.3924   13.1505 O.2     1  UNL1       -0.2699
      3 N          61.9132   88.4092   11.2873 N.am    1  UNL1       -0.2723
      4 C          61.2412   88.2905    9.9515 C.3     1  UNL1        0.1257
      5 C          60.4151   89.4261    9.4241 C.3     1  UNL1        0.1637
      6 O          60.2610   90.6802   10.2324 O.3     1  UNL1       -0.3502
      7 C          60.9331   90.7989   11.5681 C.3     1  UNL1        0.1622
      8 C          61.7592   89.6634   12.0956 C.3     1  UNL1        0.1097
      9 C          62.8066   84.8679    7.2096 C.3     1  UNL1        0.0310
     10 C          62.9270   84.8166    8.7039 C.ar    1  UNL1       -0.0216
     11 C          63.2015   83.5112    9.3899 C.ar    1  UNL1       -0.0026
     12 C          63.3219   83.4600   10.8842 C.ar    1  UNL1        0.0207
     13 C          63.1678   84.7141   11.6925 C.ar    1  UNL1        0.1072
     14 C          62.8934   86.0195   11.0065 C.ar    1  UNL1        0.0726
     15 C          62.7729   86.0707    9.5122 C.ar    1  UNL1        0.0018
     16 N          63.2883   84.6629   13.1867 N.ar    1  UNL1       -0.1477
     17 N          64.5684   84.6575   13.9685 N.ar    1  UNL1       -0.1447
     18 C          64.2210   84.5993   15.4265 C.ar    1  UNL1        0.1446
     19 C          62.7261   84.5687   15.5460 C.ar    1  UNL1        0.1446
     20 N          62.1496   84.6080   14.1617 N.ar    1  UNL1       -0.1447
     21 C          62.4312   89.7821   13.4314 C.3     1  UNL1        0.0510
     22 C          63.6559   90.6350   13.5817 C.ar    1  UNL1        0.0071
     23 C          64.2549   91.3054   12.3809 C.ar    1  UNL1        0.0012
     24 C          65.4796   92.1584   12.5312 C.ar    1  UNL1        0.0389
     25 C          66.1053   92.3410   13.8822 C.ar    1  UNL1        0.0054
     26 C          65.5062   91.6705   15.0829 C.ar    1  UNL1        0.0294
     27 C          64.2815   90.8176   14.9327 C.ar    1  UNL1        0.1362
     28 F          63.6826   90.1472   16.1334 F       1  UNL1       -0.2045
     29 C          66.0786   92.8288   11.3305 C.ar    1  UNL1        0.2037
     30 N          67.3827   92.4723   10.6806 N.ar    1  UNL1       -0.1829
     31 C          67.5887   93.3965    9.5173 C.ar    1  UNL1        0.3164
     32 O          66.4120   94.3242    9.4481 O.2     1  UNL1       -0.3274
     33 N          65.4787   93.9733   10.5687 N.ar    1  UNL1       -0.0554
@<TRIPOS>BOND
     1     9    10    1
     2    10    11   ar
     3    11    12   ar
     4    12    13   ar
     5    13    16    1
     6    16    17   ar
     7    17    18   ar
     8    18    19   ar
     9    19    20   ar
    10    13    14   ar
    11    14     1    1
    12     1     2    2
    13     1     3   am
    14     3     4    1
    15     4     5    1
    16     5     6    1
    17     6     7    1
    18     7     8    1
    19     8    21    1
    20    21    22    1
    21    22    23   ar
    22    23    24   ar
    23    24    29    1
    24    29    30   ar
    25    30    31   ar
    26    31    32   ar
    27    32    33   ar
    28    24    25   ar
    29    25    26   ar
    30    26    27   ar
    31    27    28    1
    32    14    15   ar
    33    15    10   ar
    34    20    16   ar
    35     8     3    1
    36    27    22   ar
    37    33    29   ar
@<TRIPOS>MOLECULE
*****
 33 37 0 0 0
SMALL
GASTEIGER

@<TRIPOS>ATOM
      1 C          62.7034   87.3953   11.6107 C.2     1  UNL1        0.2506
      2 O          63.6264   87.8097   12.7181 O.2     1  UNL1       -0.2699
      3 N          61.6158   88.3221   11.1545 N.am    1  UNL1       -0.2723
      4 C          60.6928   87.9078   10.0471 C.3     1  UNL1        0.1257
      5 C          59.6052   88.8347    9.5910 C.3     1  UNL1        0.1637
      6 O          59.4406   90.1758   10.2422 O.3     1  UNL1       -0.3502
      7 C          60.3637   90.5902   11.3496 C.3     1  UNL1        0.1622
      8 C          61.4512   89.6634   11.8057 C.3     1  UNL1        0.1097
      9 C          62.8438   84.4607    7.3248 C.3     1  UNL1        0.0310
     10 C          62.9382   84.5868    8.8165 C.ar    1  UNL1       -0.0216
     11 C          63.1972   83.3717    9.6570 C.ar    1  UNL1       -0.0026
     12 C          63.2915   83.4978   11.1487 C.ar    1  UNL1        0.0207
     13 C          63.1270   84.8390   11.8000 C.ar    1  UNL1        0.1072
     14 C          62.8680   86.0541   10.9595 C.ar    1  UNL1        0.0726
     15 C          62.7736   85.9280    9.4678 C.ar    1  UNL1        0.0018
     16 N          63.2213   84.9651   13.2917 N.ar    1  UNL1       -0.1477
     17 N          64.4635   85.2745   14.0735 N.ar    1  UNL1       -0.1447
     18 C          64.1000   85.3045   15.5285 C.ar    1  UNL1        0.1446
     19 C          62.6331   85.0136   15.6459 C.ar    1  UNL1        0.1446
     20 N          62.0901   84.8038   14.2635 N.ar    1  UNL1       -0.1447
     21 C          62.3743   90.0778   12.9131 C.3     1  UNL1        0.0510
     22 C          63.5812   90.9151   12.6097 C.ar    1  UNL1        0.0071
     23 C          64.5388   91.2756   13.7065 C.ar    1  UNL1        0.0012
     24 C          65.7459   92.1130   13.4031 C.ar    1  UNL1        0.0389
     25 C          65.9952   92.5897   12.0029 C.ar    1  UNL1        0.0054
     26 C          65.0376   92.2291   10.9061 C.ar    1  UNL1        0.0294
     27 C          63.8306   91.3918   11.2095 C.ar    1  UNL1        0.1362
     28 F          62.8730   91.0312   10.1127 F       1  UNL1       -0.2045
     29 C          66.7035   92.4735   14.4998 C.ar    1  UNL1        0.2037
     30 N          68.1744   92.7203   14.3402 N.ar    1  UNL1       -0.1829
     31 C          68.7383   93.0499   15.6905 C.ar    1  UNL1        0.3164
     32 O          67.6159   93.0069   16.6847 O.2     1  UNL1       -0.3274
     33 N          66.3583   92.6507   15.9488 N.ar    1  UNL1       -0.0554
@<TRIPOS>BOND
     1     9    10    1
     2    10    11   ar
     3    11    12   ar
     4    12    13   ar
     5    13    16    1
     6    16    17   ar
     7    17    18   ar
     8    18    19   ar
     9    19    20   ar
    10    13    14   ar
    11    14     1    1
    12     1     2    2
    13     1     3   am
    14     3     4    1
    15     4     5    1
    16     5     6    1
    17     6     7    1
    18     7     8    1
    19     8    21    1
    20    21    22    1
    21    22    23   ar
    22    23    24   ar
    23    24    29    1
    24    29    30   ar
    25    30    31   ar
    26    31    32   ar
    27    32    33   ar
    28    24    25   ar
    29    25    26   ar
    30    26    27   ar
    31    27    28    1
    32    14    15   ar
    33    15    10   ar
    34    20    16   ar
    35     8     3    1
    36    27    22   ar
    37    33    29   ar
@<TRIPOS>MOLECULE
*****
 33 37 0 0 0
SMALL
GASTEIGER

@<TRIPOS>ATOM
      1 C          63.2639   86.9694   12.9783 C.2     1  UNL1        0.2506
      2 O          63.6981   87.6423   14.2466 O.2     1  UNL1       -0.2699
      3 N          62.7130   87.7856   11.8469 N.am    1  UNL1       -0.2723
      4 C          62.2787   87.1127   10.5786 C.3     1  UNL1        0.1257
      5 C          61.7277   87.9290    9.4471 C.3     1  UNL1        0.1637
      6 O          61.6110   89.4181    9.5840 O.3     1  UNL1       -0.3502
      7 C          62.0452   90.0910   10.8524 C.3     1  UNL1        0.1622
      8 C          62.5962   89.2748   11.9838 C.3     1  UNL1        0.1097
      9 C          64.0192   82.7683   10.0151 C.3     1  UNL1        0.0310
     10 C          63.7584   83.3796   11.3598 C.ar    1  UNL1       -0.0216
     11 C          63.6143   82.5019   12.5676 C.ar    1  UNL1       -0.0026
     12 C          63.3535   83.1133   13.9123 C.ar    1  UNL1        0.0207
     13 C          63.2367   84.6024   14.0492 C.ar    1  UNL1        0.1072
     14 C          63.3807   85.4802   12.8414 C.ar    1  UNL1        0.0726
     15 C          63.6416   84.8688   11.4967 C.ar    1  UNL1        0.0018
     16 N          62.9758   85.2138   15.3939 N.ar    1  UNL1       -0.1477
     17 N          61.6286   85.4384   16.0139 N.ar    1  UNL1       -0.1447
     18 C          61.8365   86.0713   17.3579 C.ar    1  UNL1        0.1446
     19 C          63.3123   86.2379   17.5684 C.ar    1  UNL1        0.1446
     20 N          64.0164   85.7079   16.3546 N.ar    1  UNL1       -0.1447
     21 C          63.0304   89.9477   13.2521 C.3     1  UNL1        0.0510
     22 C          64.3104   90.7288   13.2865 C.ar    1  UNL1        0.0071
     23 C          64.7129   91.5614   12.1054 C.ar    1  UNL1        0.0012
     24 C          65.9930   92.3425   12.1397 C.ar    1  UNL1        0.0389
     25 C          66.8707   92.2911   13.3551 C.ar    1  UNL1        0.0054
     26 C          66.4681   91.4585   14.5362 C.ar    1  UNL1        0.0294
     27 C          65.1881   90.6774   14.5018 C.ar    1  UNL1        0.1362
     28 F          64.7856   89.8449   15.6828 F       1  UNL1       -0.2045
     29 C          66.3955   93.1751   10.9587 C.ar    1  UNL1        0.2037
     30 N          67.5982   92.9510   10.0908 N.ar    1  UNL1       -0.1829
     31 C          67.6120   94.0153    9.0339 C.ar    1  UNL1        0.3164
     32 O          66.4177   94.8972    9.2486 O.2     1  UNL1       -0.3274
     33 N          65.6659   94.3779   10.4382 N.ar    1  UNL1       -0.0554
@<TRIPOS>BOND
     1     9    10    1
     2    10    11   ar
     3    11    12   ar
     4    12    13   ar
     5    13    16    1
     6    16    17   ar
     7    17    18   ar
     8    18    19   ar
     9    19    20   ar
    10    13    14   ar
    11    14     1    1
    12     1     2    2
    13     1     3   am
    14     3     4    1
    15     4     5    1
    16     5     6    1
    17     6     7    1
    18     7     8    1
    19     8    21    1
    20    21    22    1
    21    22    23   ar
    22    23    24   ar
    23    24    29    1
    24    29    30   ar
    25    30    31   ar
    26    31    32   ar
    27    32    33   ar
    28    24    25   ar
    29    25    26   ar
    30    26    27   ar
    31    27    28    1
    32    14    15   ar
    33    15    10   ar
    34    20    16   ar
    35     8     3    1
    36    27    22   ar
    37    33    29   ar
@<TRIPOS>MOLECULE
*****
 33 37 0 0 0
SMALL
GASTEIGER

@<TRIPOS>ATOM
      1 C          62.2623   84.8341   12.2075 C.2     1  UNL1        0.2506
      2 O          61.5796   85.9070   13.0031 O.2     1  UNL1       -0.2699
      3 N          62.5364   85.0425   10.7476 N.am    1  UNL1       -0.2723
      4 C          63.2191   83.9696    9.9521 C.3     1  UNL1        0.1257
      5 C          63.4932   84.1780    8.4921 C.3     1  UNL1        0.1637
      6 O          63.0845   85.4592    7.8277 O.3     1  UNL1       -0.3502
      7 C          62.4018   86.5321    8.6232 C.3     1  UNL1        0.1622
      8 C          62.1277   86.3237   10.0831 C.3     1  UNL1        0.1097
      9 C          62.6616   79.6539   12.1319 C.3     1  UNL1        0.0310
     10 C          62.8706   80.9627   12.8341 C.ar    1  UNL1       -0.0216
     11 C          63.4882   80.9904   14.2008 C.ar    1  UNL1       -0.0026
     12 C          63.6972   82.2993   14.9030 C.ar    1  UNL1        0.0207
     13 C          63.2886   83.5805   14.2386 C.ar    1  UNL1        0.1072
     14 C          62.6710   83.5528   12.8720 C.ar    1  UNL1        0.0726
     15 C          62.4620   82.2440   12.1697 C.ar    1  UNL1        0.0018
     16 N          63.4976   84.8894   14.9409 N.ar    1  UNL1       -0.1477
     17 N          64.4557   85.9676   14.5294 N.ar    1  UNL1       -0.1447
     18 C          64.3355   87.0945   15.5121 C.ar    1  UNL1        0.1446
     19 C          63.3029   86.7127   16.5310 C.ar    1  UNL1        0.1446
     20 N          62.7851   85.3499   16.1779 N.ar    1  UNL1       -0.1447
     21 C          61.4450   87.3966   10.8787 C.3     1  UNL1        0.0510
     22 C          62.0527   88.7650   10.9689 C.ar    1  UNL1        0.0071
     23 C          62.8281   89.1621   12.1899 C.ar    1  UNL1        0.0012
     24 C          63.4358   90.5306   12.2802 C.ar    1  UNL1        0.0389
     25 C          63.2681   91.5018   11.1495 C.ar    1  UNL1        0.0054
     26 C          62.4926   91.1046    9.9284 C.ar    1  UNL1        0.0294
     27 C          61.8849   89.7362    9.8382 C.ar    1  UNL1        0.1362
     28 F          61.1094   89.3390    8.6172 F       1  UNL1       -0.2045
     29 C          64.2113   90.9278   13.5012 C.ar    1  UNL1        0.2037
     30 N          65.6745   91.2544   13.5487 N.ar    1  UNL1       -0.1829
     31 C          66.0273   91.5966   14.9660 C.ar    1  UNL1        0.3164
     32 O          64.7820   91.4814   15.7943 O.2     1  UNL1       -0.3274
     33 N          63.6597   91.0681   14.8890 N.ar    1  UNL1       -0.0554
@<TRIPOS>BOND
     1     9    10    1
     2    10    11   ar
     3    11    12   ar
     4    12    13   ar
     5    13    16    1
     6    16    17   ar
     7    17    18   ar
     8    18    19   ar
     9    19    20   ar
    10    13    14   ar
    11    14     1    1
    12     1     2    2
    13     1     3   am
    14     3     4    1
    15     4     5    1
    16     5     6    1
    17     6     7    1
    18     7     8    1
    19     8    21    1
    20    21    22    1
    21    22    23   ar
    22    23    24   ar
    23    24    29    1
    24    29    30   ar
    25    30    31   ar
    26    31    32   ar
    27    32    33   ar
    28    24    25   ar
    29    25    26   ar
    30    26    27   ar
    31    27    28    1
    32    14    15   ar
    33    15    10   ar
    34    20    16   ar
    35     8     3    1
    36    27    22   ar
    37    33    29   ar
@<TRIPOS>MOLECULE
*****
 33 37 0 0 0
SMALL
GASTEIGER

@<TRIPOS>ATOM
      1 C          62.8342   88.8446   12.0143 C.2     1  UNL1        0.2506
      2 O          62.9179   87.6155   12.8701 O.2     1  UNL1       -0.2699
      3 N          61.8799   88.8899   10.8580 N.am    1  UNL1       -0.2723
      4 C          61.7962   90.1190   10.0022 C.3     1  UNL1        0.1257
      5 C          60.8418   90.1642    8.8458 C.3     1  UNL1        0.1637
      6 O          59.9710   88.9804    8.5453 O.3     1  UNL1       -0.3502
      7 C          60.0547   87.7513    9.4011 C.3     1  UNL1        0.1622
      8 C          61.0091   87.7060   10.5574 C.3     1  UNL1        0.1097
      9 C          65.3175   93.1234   10.4250 C.3     1  UNL1        0.0310
     10 C          64.9466   92.1679   11.5202 C.ar    1  UNL1       -0.0216
     11 C          65.4465   92.3961   12.9159 C.ar    1  UNL1       -0.0026
     12 C          65.0756   91.4406   14.0110 C.ar    1  UNL1        0.0207
     13 C          64.2049   90.2568   13.7105 C.ar    1  UNL1        0.1072
     14 C          63.7050   90.0285   12.3149 C.ar    1  UNL1        0.0726
     15 C          64.0759   90.9840   11.2197 C.ar    1  UNL1        0.0018
     16 N          63.8340   89.3012   14.8057 N.ar    1  UNL1       -0.1477
     17 N          64.3337   87.8948   14.9555 N.ar    1  UNL1       -0.1447
     18 C          63.7069   87.3087   16.1857 C.ar    1  UNL1        0.1446
     19 C          62.8198   88.3528   16.7963 C.ar    1  UNL1        0.1446
     20 N          62.8984   89.5843   15.9434 N.ar    1  UNL1       -0.1447
     21 C          61.0927   86.4769   11.4132 C.3     1  UNL1        0.0510
     22 C          62.0025   85.3507   11.0213 C.ar    1  UNL1        0.0071
     23 C          62.1621   84.1656   11.9269 C.ar    1  UNL1        0.0012
     24 C          63.0719   83.0392   11.5350 C.ar    1  UNL1        0.0389
     25 C          63.8222   83.0980   10.2374 C.ar    1  UNL1        0.0054
     26 C          63.6626   84.2831    9.3318 C.ar    1  UNL1        0.0294
     27 C          62.7528   85.4094    9.7237 C.ar    1  UNL1        0.1362
     28 F          62.5933   86.5944    8.8181 F       1  UNL1       -0.2045
     29 C          63.2314   81.8542   12.4406 C.ar    1  UNL1        0.2037
     30 N          62.4939   80.5530   12.3280 N.ar    1  UNL1       -0.1829
     31 C          62.9631   79.6568   13.4356 C.ar    1  UNL1        0.3164
     32 O          63.9908   80.4043   14.2328 O.2     1  UNL1       -0.3274
     33 N          64.1566   81.7623   13.6178 N.ar    1  UNL1       -0.0554
@<TRIPOS>BOND
     1     9    10    1
     2    10    11   ar
     3    11    12   ar
     4    12    13   ar
     5    13    16    1
     6    16    17   ar
     7    17    18   ar
     8    18    19   ar
     9    19    20   ar
    10    13    14   ar
    11    14     1    1
    12     1     2    2
    13     1     3   am
    14     3     4    1
    15     4     5    1
    16     5     6    1
    17     6     7    1
    18     7     8    1
    19     8    21    1
    20    21    22    1
    21    22    23   ar
    22    23    24   ar
    23    24    29    1
    24    29    30   ar
    25    30    31   ar
    26    31    32   ar
    27    32    33   ar
    28    24    25   ar
    29    25    26   ar
    30    26    27   ar
    31    27    28    1
    32    14    15   ar
    33    15    10   ar
    34    20    16   ar
    35     8     3    1
    36    27    22   ar
    37    33    29   ar
@<TRIPOS>MOLECULE
*****
 33 37 0 0 0
SMALL
GASTEIGER

@<TRIPOS>ATOM
      1 C          62.7064   88.2434   11.2910 C.2     1  UNL1        0.2506
      2 O          63.0348   87.5937   12.6025 O.2     1  UNL1       -0.2699
      3 N          63.1277   89.6589   11.0288 N.am    1  UNL1       -0.2723
      4 C          62.7993   90.3085    9.7173 C.3     1  UNL1        0.1257
      5 C          63.2206   91.7241    9.4552 C.3     1  UNL1        0.1637
      6 O          63.9704   92.4900   10.5045 O.3     1  UNL1       -0.3502
      7 C          64.2988   91.8403   11.8161 C.3     1  UNL1        0.1622
      8 C          63.8775   90.4248   12.0782 C.3     1  UNL1        0.1097
      9 C          62.6490   84.7248    7.4678 C.3     1  UNL1        0.0310
     10 C          61.9279   85.7181    8.3300 C.ar    1  UNL1       -0.0216
     11 C          60.4571   85.9455    8.1429 C.ar    1  UNL1       -0.0026
     12 C          59.7361   86.9388    9.0051 C.ar    1  UNL1        0.0207
     13 C          60.4858   87.7047   10.0545 C.ar    1  UNL1        0.1072
     14 C          61.9566   87.4774   10.2416 C.ar    1  UNL1        0.0726
     15 C          62.6776   86.4841    9.3794 C.ar    1  UNL1        0.0018
     16 N          59.7648   88.6980   10.9167 N.ar    1  UNL1       -0.1477
     17 N          59.1394   88.4174   12.2509 N.ar    1  UNL1       -0.1447
     18 C          58.5306   89.6923   12.7549 C.ar    1  UNL1        0.1446
     19 C          58.7797   90.7609   11.7321 C.ar    1  UNL1        0.1446
     20 N          59.5424   90.1464   10.5961 N.ar    1  UNL1       -0.1447
     21 C          64.2060   89.7752   13.3897 C.3     1  UNL1        0.0510
     22 C          64.6667   90.6117   14.5465 C.ar    1  UNL1        0.0071
     23 C          65.9830   91.3275   14.4770 C.ar    1  UNL1        0.0012
     24 C          66.4438   92.1641   15.6338 C.ar    1  UNL1        0.0389
     25 C          65.5882   92.2846   16.8599 C.ar    1  UNL1        0.0054
     26 C          64.2718   91.5687   16.9293 C.ar    1  UNL1        0.0294
     27 C          63.8111   90.7323   15.7726 C.ar    1  UNL1        0.1362
     28 F          62.4948   90.0164   15.8421 F       1  UNL1       -0.2045
     29 C          67.7601   92.8799   15.5643 C.ar    1  UNL1        0.2037
     30 N          68.1729   94.0499   16.4073 N.ar    1  UNL1       -0.1829
     31 C          69.5626   94.4446   16.0037 C.ar    1  UNL1        0.3164
     32 O          70.0087   93.5185   14.9112 O.2     1  UNL1       -0.3274
     33 N          68.8946   92.5515   14.6397 N.ar    1  UNL1       -0.0554
@<TRIPOS>BOND
     1     9    10    1
     2    10    11   ar
     3    11    12   ar
     4    12    13   ar
     5    13    16    1
     6    16    17   ar
     7    17    18   ar
     8    18    19   ar
     9    19    20   ar
    10    13    14   ar
    11    14     1    1
    12     1     2    2
    13     1     3   am
    14     3     4    1
    15     4     5    1
    16     5     6    1
    17     6     7    1
    18     7     8    1
    19     8    21    1
    20    21    22    1
    21    22    23   ar
    22    23    24   ar
    23    24    29    1
    24    29    30   ar
    25    30    31   ar
    26    31    32   ar
    27    32    33   ar
    28    24    25   ar
    29    25    26   ar
    30    26    27   ar
    31    27    28    1
    32    14    15   ar
    33    15    10   ar
    34    20    16   ar
    35     8     3    1
    36    27    22   ar
    37    33    29   ar
