@<TRIPOS>MOLECULE
*****
 40 44 0 0 0
SMALL
GASTEIGER

@<TRIPOS>ATOM
      1 C          59.7395   89.9986    6.2943 C.2     1  UNL1        0.2495
      2 O          58.3295   90.1911    5.8199 O.2     1  UNL1       -0.2698
      3 N          60.8689   90.6906    5.5903 N.am    1  UNL1       -0.2804
      4 H          61.7942   90.5642    5.9017 H       1  UNL1        0.1552
      5 C          60.8617   86.4604   11.0084 C.3     1  UNL1        0.0317
      6 C          60.5812   87.3450    9.8299 C.ar    1  UNL1       -0.0142
      7 C          59.7872   86.8202    8.6704 C.ar    1  UNL1       -0.0035
      8 C          59.5067   87.7047    7.4919 C.ar    1  UNL1        0.0042
      9 C          60.0200   89.1140    7.4728 C.ar    1  UNL1        0.0543
     10 C          60.8140   89.6388    8.6323 C.ar    1  UNL1        0.0124
     11 C          61.0945   88.7542    9.8108 C.ar    1  UNL1        0.0382
     12 C          61.8885   89.2789   10.9702 C.1     1  UNL1       -0.0585
     13 C          62.6824   89.8036   12.1298 C.1     1  UNL1       -0.0388
     14 C          63.4763   90.3283   13.2892 C.ar    1  UNL1        0.1451
     15 C          63.3635   89.8719   14.7136 C.ar    1  UNL1        0.1281
     16 N          64.3399   90.6631   15.5325 N.ar    1  UNL1       -0.2228
     17 C          65.0562   91.6085   14.6142 C.ar    1  UNL1        0.1646
     18 C          66.1254   92.6310   14.8614 C.ar    1  UNL1        0.0405
     19 C          66.6609   93.4466   13.7221 C.ar    1  UNL1        0.0256
     20 C          66.1272   93.2396   12.3357 C.ar    1  UNL1        0.1207
     21 N          65.0579   92.2171   12.0885 N.ar    1  UNL1       -0.1616
     22 N          64.5224   91.4016   13.2278 N.ar    1  UNL1       -0.2030
     23 C          60.5883   91.5751    4.4118 C.ar    1  UNL1        0.0505
     24 C          59.2344   92.1997    4.2482 C.ar    1  UNL1        0.0144
     25 C          58.9539   93.0843    3.0697 C.ar    1  UNL1       -0.0017
     26 C          60.0273   93.3443    2.0547 C.ar    1  UNL1       -0.0022
     27 C          61.3812   92.7197    2.2182 C.ar    1  UNL1        0.0700
     28 C          61.6617   91.8352    3.3968 C.ar    1  UNL1        0.0183
     29 C          62.4547   92.9797    1.2034 C.3     1  UNL1        0.4184
     30 F          63.5281   93.2395    0.1884 F       1  UNL1       -0.1659
     31 F          63.0062   94.0751    2.0670 F       1  UNL1       -0.1659
     32 F          61.9032   91.8842    0.3396 F       1  UNL1       -0.1659
     33 C          59.7467   94.2288    0.8763 C.3     1  UNL1        0.0992
     34 N          59.1586   93.6470   -0.3750 N.3     1  UNL1       -0.2665
     35 C          57.7953   93.0222   -0.3428 C.3     1  UNL1        0.0899
     36 C          57.2074   92.4405   -1.5941 C.3     1  UNL1        0.0897
     37 N          57.9826   92.4835   -2.8775 N.3     1  UNL1       -0.2691
     38 C          57.3945   91.9017   -4.1289 C.3     1  UNL1        0.0897
     39 C          59.3459   93.1083   -2.9097 C.3     1  UNL1        0.0897
     40 C          59.9340   93.6901   -1.6585 C.3     1  UNL1        0.0899
@<TRIPOS>BOND
     1     5     6    1
     2     6     7   ar
     3     7     8   ar
     4     8     9   ar
     5     9     1    1
     6     1     2    2
     7     1     3   am
     8     3    23    1
     9    23    24   ar
    10    24    25   ar
    11    25    26   ar
    12    26    33    1
    13    33    34    1
    14    34    35    1
    15    35    36    1
    16    36    37    1
    17    37    38    1
    18    37    39    1
    19    39    40    1
    20    26    27   ar
    21    27    29    1
    22    29    30    1
    23    29    31    1
    24    29    32    1
    25    27    28   ar
    26     9    10   ar
    27    10    11   ar
    28    11    12    1
    29    12    13    3
    30    13    14    1
    31    14    15   ar
    32    15    16   ar
    33    16    17   ar
    34    17    18   ar
    35    18    19   ar
    36    19    20   ar
    37    20    21   ar
    38    21    22   ar
    39    11     6   ar
    40    22    14   ar
    41    28    23   ar
    42    22    17   ar
    43    40    34    1
    44     3     4    1
@<TRIPOS>MOLECULE
*****
 40 44 0 0 0
SMALL
GASTEIGER

@<TRIPOS>ATOM
      1 C          59.6868   90.5005    5.5838 C.2     1  UNL1        0.2495
      2 O          58.3072   90.6786    5.0223 O.2     1  UNL1       -0.2698
      3 N          60.8607   91.1443    4.9075 N.am    1  UNL1       -0.2804
      4 H          61.7661   91.0274    5.2761 H       1  UNL1        0.1552
      5 C          60.5090   87.2124   10.5348 C.3     1  UNL1        0.0317
      6 C          60.3035   88.0345    9.2971 C.ar    1  UNL1       -0.0142
      7 C          59.4412   87.5138    8.1855 C.ar    1  UNL1       -0.0035
      8 C          59.2357   88.3357    6.9478 C.ar    1  UNL1        0.0042
      9 C          59.8923   89.6785    6.8215 C.ar    1  UNL1        0.0543
     10 C          60.7546   90.1991    7.9330 C.ar    1  UNL1        0.0124
     11 C          60.9601   89.3771    9.1708 C.ar    1  UNL1        0.0382
     12 C          61.8223   89.8978   10.2823 C.1     1  UNL1       -0.0585
     13 C          62.6845   90.4185   11.3938 C.1     1  UNL1       -0.0388
     14 C          63.5468   90.9392   12.5054 C.ar    1  UNL1        0.1451
     15 C          64.6906   91.8984   12.3586 C.ar    1  UNL1        0.1281
     16 N          65.2673   92.1440   13.7213 N.ar    1  UNL1       -0.2228
     17 C          64.4798   91.3367   14.7103 C.ar    1  UNL1        0.1646
     18 C          64.5936   91.1834   16.1981 C.ar    1  UNL1        0.0405
     19 C          63.6441   90.2855   16.9343 C.ar    1  UNL1        0.0256
     20 C          62.5808   89.5408   16.1828 C.ar    1  UNL1        0.1207
     21 N          62.4669   89.6941   14.6951 N.ar    1  UNL1       -0.1616
     22 N          63.4165   90.5921   13.9588 N.ar    1  UNL1       -0.2030
     23 C          60.6552   91.9664    3.6698 C.ar    1  UNL1        0.0505
     24 C          59.2659   92.2582    3.1853 C.ar    1  UNL1        0.0144
     25 C          59.0604   93.0802    1.9476 C.ar    1  UNL1       -0.0017
     26 C          60.2442   93.6104    1.1942 C.ar    1  UNL1       -0.0022
     27 C          61.6335   93.3186    1.6786 C.ar    1  UNL1        0.0700
     28 C          61.8390   92.4966    2.9164 C.ar    1  UNL1        0.0183
     29 C          62.8173   93.8488    0.9254 C.3     1  UNL1        0.4184
     30 F          64.0012   94.3791    0.1722 F       1  UNL1       -0.1659
     31 F          62.7605   92.6666    0.0038 F       1  UNL1       -0.1659
     32 F          62.8742   95.0310    1.8469 F       1  UNL1       -0.1659
     33 C          60.0387   94.4325   -0.0435 C.3     1  UNL1        0.0992
     34 N          59.0518   93.9895   -1.0827 N.3     1  UNL1       -0.2665
     35 C          59.4338   92.9347   -2.0785 C.3     1  UNL1        0.0899
     36 C          58.4469   92.4919   -3.1176 C.3     1  UNL1        0.0897
     37 N          57.0780   93.1037   -3.1610 N.3     1  UNL1       -0.2691
     38 C          56.0911   92.6607   -4.2002 C.3     1  UNL1        0.0897
     39 C          56.6960   94.1585   -2.1652 C.3     1  UNL1        0.0897
     40 C          57.6829   94.6014   -1.1261 C.3     1  UNL1        0.0899
@<TRIPOS>BOND
     1     5     6    1
     2     6     7   ar
     3     7     8   ar
     4     8     9   ar
     5     9     1    1
     6     1     2    2
     7     1     3   am
     8     3    23    1
     9    23    24   ar
    10    24    25   ar
    11    25    26   ar
    12    26    33    1
    13    33    34    1
    14    34    35    1
    15    35    36    1
    16    36    37    1
    17    37    38    1
    18    37    39    1
    19    39    40    1
    20    26    27   ar
    21    27    29    1
    22    29    30    1
    23    29    31    1
    24    29    32    1
    25    27    28   ar
    26     9    10   ar
    27    10    11   ar
    28    11    12    1
    29    12    13    3
    30    13    14    1
    31    14    15   ar
    32    15    16   ar
    33    16    17   ar
    34    17    18   ar
    35    18    19   ar
    36    19    20   ar
    37    20    21   ar
    38    21    22   ar
    39    11     6   ar
    40    22    14   ar
    41    28    23   ar
    42    22    17   ar
    43    40    34    1
    44     3     4    1
@<TRIPOS>MOLECULE
*****
 40 44 0 0 0
SMALL
GASTEIGER

@<TRIPOS>ATOM
      1 C          60.1224   91.0945    5.1586 C.2     1  UNL1        0.2495
      2 O          58.9462   91.9399    4.7686 O.2     1  UNL1       -0.2698
      3 N          61.3969   91.1738    4.3718 N.am    1  UNL1       -0.2804
      4 H          62.1688   90.6190    4.6279 H       1  UNL1        0.1552
      5 C          59.7284   87.3959    9.8667 C.3     1  UNL1        0.0317
      6 C          59.8269   88.3206    8.6897 C.ar    1  UNL1       -0.0142
      7 C          59.0099   88.0582    7.4593 C.ar    1  UNL1       -0.0035
      8 C          59.1084   88.9828    6.2824 C.ar    1  UNL1        0.0042
      9 C          60.0239   90.1699    6.3356 C.ar    1  UNL1        0.0543
     10 C          60.8408   90.4323    7.5660 C.ar    1  UNL1        0.0124
     11 C          60.7424   89.5076    8.7429 C.ar    1  UNL1        0.0382
     12 C          61.5593   89.7700    9.9733 C.1     1  UNL1       -0.0585
     13 C          62.3763   90.0324   11.2037 C.1     1  UNL1       -0.0388
     14 C          63.1932   90.2947   12.4340 C.ar    1  UNL1        0.1451
     15 C          63.0436   89.6019   13.7560 C.ar    1  UNL1        0.1281
     16 N          64.0612   90.1750   14.6974 N.ar    1  UNL1       -0.2228
     17 C          64.8397   91.2220   13.9572 C.ar    1  UNL1        0.1646
     18 C          65.9677   92.1175   14.3762 C.ar    1  UNL1        0.0405
     19 C          66.5592   93.0870   13.3964 C.ar    1  UNL1        0.0256
     20 C          66.0228   93.1610   11.9975 C.ar    1  UNL1        0.1207
     21 N          64.8948   92.2655   11.5785 N.ar    1  UNL1       -0.1616
     22 N          64.3032   91.2960   12.5583 N.ar    1  UNL1       -0.2030
     23 C          61.4954   92.0985    3.1948 C.ar    1  UNL1        0.0505
     24 C          62.8342   92.6118    2.7542 C.ar    1  UNL1        0.0144
     25 C          62.9327   93.5365    1.5773 C.ar    1  UNL1       -0.0017
     26 C          61.6924   93.9478    0.8408 C.ar    1  UNL1       -0.0022
     27 C          60.3535   93.4345    1.2813 C.ar    1  UNL1        0.0700
     28 C          60.2551   92.5098    2.4583 C.ar    1  UNL1        0.0183
     29 C          59.1132   93.8458    0.5449 C.3     1  UNL1        0.4184
     30 F          57.8728   94.2572   -0.1914 F       1  UNL1       -0.1659
     31 F          59.0343   92.4855   -0.0821 F       1  UNL1       -0.1659
     32 F          59.1921   95.2062    1.1720 F       1  UNL1       -0.1659
     33 C          61.7909   94.8725   -0.3362 C.3     1  UNL1        0.0992
     34 N          62.6090   94.4812   -1.5310 N.3     1  UNL1       -0.2665
     35 C          63.7109   95.3782   -2.0118 C.3     1  UNL1        0.0899
     36 C          64.5290   94.9868   -3.2066 C.3     1  UNL1        0.0897
     37 N          64.2453   93.6984   -3.9205 N.3     1  UNL1       -0.2691
     38 C          65.0635   93.3071   -5.1153 C.3     1  UNL1        0.0897
     39 C          63.1434   92.8014   -3.4396 C.3     1  UNL1        0.0897
     40 C          62.3253   93.1927   -2.2448 C.3     1  UNL1        0.0899
@<TRIPOS>BOND
     1     5     6    1
     2     6     7   ar
     3     7     8   ar
     4     8     9   ar
     5     9     1    1
     6     1     2    2
     7     1     3   am
     8     3    23    1
     9    23    24   ar
    10    24    25   ar
    11    25    26   ar
    12    26    33    1
    13    33    34    1
    14    34    35    1
    15    35    36    1
    16    36    37    1
    17    37    38    1
    18    37    39    1
    19    39    40    1
    20    26    27   ar
    21    27    29    1
    22    29    30    1
    23    29    31    1
    24    29    32    1
    25    27    28   ar
    26     9    10   ar
    27    10    11   ar
    28    11    12    1
    29    12    13    3
    30    13    14    1
    31    14    15   ar
    32    15    16   ar
    33    16    17   ar
    34    17    18   ar
    35    18    19   ar
    36    19    20   ar
    37    20    21   ar
    38    21    22   ar
    39    11     6   ar
    40    22    14   ar
    41    28    23   ar
    42    22    17   ar
    43    40    34    1
    44     3     4    1
@<TRIPOS>MOLECULE
*****
 40 44 0 0 0
SMALL
GASTEIGER

@<TRIPOS>ATOM
      1 C          60.2045   91.2568    5.0609 C.2     1  UNL1        0.2495
      2 O          59.2390   92.3831    4.8385 O.2     1  UNL1       -0.2698
      3 N          61.4446   91.1555    4.2231 N.am    1  UNL1       -0.2804
      4 H          62.0782   90.4163    4.3691 H       1  UNL1        0.1552
      5 C          59.1057   87.1570    9.3017 C.3     1  UNL1        0.0317
      6 C          59.3804   88.1820    8.2415 C.ar    1  UNL1       -0.0142
      7 C          58.5389   88.2213    7.0004 C.ar    1  UNL1       -0.0035
      8 C          58.8136   89.2462    5.9402 C.ar    1  UNL1        0.0042
      9 C          59.9298   90.2319    6.1211 C.ar    1  UNL1        0.0543
     10 C          60.7713   90.1925    7.3622 C.ar    1  UNL1        0.0124
     11 C          60.4966   89.1675    8.4224 C.ar    1  UNL1        0.0382
     12 C          61.3381   89.1282    9.6635 C.1     1  UNL1       -0.0585
     13 C          62.1795   89.0888   10.9047 C.1     1  UNL1       -0.0388
     14 C          63.0210   89.0494   12.1458 C.ar    1  UNL1        0.1451
     15 C          63.6168   90.2352   12.8450 C.ar    1  UNL1        0.1281
     16 N          64.3784   89.7359   14.0369 N.ar    1  UNL1       -0.2228
     17 C          64.2533   88.2416   14.0743 C.ar    1  UNL1        0.1646
     18 C          64.7949   87.2125   15.0217 C.ar    1  UNL1        0.0405
     19 C          64.4975   85.7591   14.8002 C.ar    1  UNL1        0.0256
     20 C          63.6586   85.3348   13.6314 C.ar    1  UNL1        0.1207
     21 N          63.1170   86.3639   12.6841 N.ar    1  UNL1       -0.1616
     22 N          63.4143   87.8173   12.9055 N.ar    1  UNL1       -0.2030
     23 C          61.7193   92.1804    3.1629 C.ar    1  UNL1        0.0505
     24 C          63.1332   92.5039    2.7808 C.ar    1  UNL1        0.0144
     25 C          63.4079   93.5288    1.7206 C.ar    1  UNL1       -0.0017
     26 C          62.2686   94.2303    1.0425 C.ar    1  UNL1       -0.0022
     27 C          60.8546   93.9069    1.4246 C.ar    1  UNL1        0.0700
     28 C          60.5800   92.8819    2.4848 C.ar    1  UNL1        0.0183
     29 C          59.7153   94.6084    0.7465 C.3     1  UNL1        0.4184
     30 F          58.5759   95.3098    0.0684 F       1  UNL1       -0.1659
     31 F          59.7711   95.6962    1.7779 F       1  UNL1       -0.1659
     32 F          59.6595   93.5206   -0.2849 F       1  UNL1       -0.1659
     33 C          62.5433   95.2553   -0.0177 C.3     1  UNL1        0.0992
     34 N          63.1338   94.8359   -1.3312 N.3     1  UNL1       -0.2665
     35 C          64.1347   95.7164   -2.0189 C.3     1  UNL1        0.0899
     36 C          64.7251   95.2969   -3.3324 C.3     1  UNL1        0.0897
     37 N          64.3147   93.9970   -3.9583 N.3     1  UNL1       -0.2691
     38 C          64.9052   93.5776   -5.2719 C.3     1  UNL1        0.0897
     39 C          63.3138   93.1165   -3.2706 C.3     1  UNL1        0.0897
     40 C          62.7233   93.5359   -1.9571 C.3     1  UNL1        0.0899
@<TRIPOS>BOND
     1     5     6    1
     2     6     7   ar
     3     7     8   ar
     4     8     9   ar
     5     9     1    1
     6     1     2    2
     7     1     3   am
     8     3    23    1
     9    23    24   ar
    10    24    25   ar
    11    25    26   ar
    12    26    33    1
    13    33    34    1
    14    34    35    1
    15    35    36    1
    16    36    37    1
    17    37    38    1
    18    37    39    1
    19    39    40    1
    20    26    27   ar
    21    27    29    1
    22    29    30    1
    23    29    31    1
    24    29    32    1
    25    27    28   ar
    26     9    10   ar
    27    10    11   ar
    28    11    12    1
    29    12    13    3
    30    13    14    1
    31    14    15   ar
    32    15    16   ar
    33    16    17   ar
    34    17    18   ar
    35    18    19   ar
    36    19    20   ar
    37    20    21   ar
    38    21    22   ar
    39    11     6   ar
    40    22    14   ar
    41    28    23   ar
    42    22    17   ar
    43    40    34    1
    44     3     4    1
