@<TRIPOS>MOLECULE
*****
 40 43 0 0 0
SMALL
GASTEIGER

@<TRIPOS>ATOM
      1 C          62.5387   88.4286   11.6557 C.2     1  UNL1        0.2491
      2 O          63.1312   87.1414   12.1476 O.2     1  UNL1       -0.2699
      3 N          61.2252   88.4212   10.9315 N.am    1  UNL1       -0.2776
      4 C          64.2628   91.4786   13.5200 C.ar    1  UNL1        0.1723
      5 C          63.5418   90.1840   13.2875 C.ar    1  UNL1        0.0446
      6 C          63.2597   89.7234   11.8882 C.ar    1  UNL1        0.0568
      7 C          63.6987   90.5573   10.7212 C.ar    1  UNL1        0.0078
      8 C          64.4196   91.8520   10.9537 C.ar    1  UNL1        0.0402
      9 C          64.7017   92.3126   12.3531 C.ar    1  UNL1        0.1724
     10 O          65.4227   93.6073   12.5855 O.3     1  UNL1       -0.4684
     11 C          66.2223   94.2295   11.4794 C.3     1  UNL1        0.2526
     12 O          64.5448   91.9393   14.9194 O.3     1  UNL1       -0.4723
     13 C          65.9608   92.0470   15.4025 C.3     1  UNL1        0.2082
     14 C          67.0522   91.2951   14.6999 C.3     1  UNL1        0.0794
     15 C          68.0964   92.0408   13.9228 C.3     1  UNL1        0.1461
     16 C          68.9576   93.6631   15.7603 C.3     1  UNL1        0.1741
     17 O          69.2342   92.7041   14.6406 O.3     1  UNL1       -0.3510
     18 C          60.6327   89.7085   10.4396 C.3     1  UNL1        0.0757
     19 C          59.9437   90.6323   11.3998 C.3     1  UNL1        0.0215
     20 C          60.7291   90.0721    8.9875 C.3     1  UNL1        0.0215
     21 C          60.5042   87.1266   10.6990 C.3     1  UNL1        0.0974
     22 C          60.4700   86.5231    9.3262 C.3     1  UNL1        0.0642
     23 C          59.3113   86.5621    8.3745 C.3     1  UNL1        0.0728
     24 N          59.7137   85.8377    7.1242 N.3     1  UNL1       -0.2953
     25 C          61.1213   85.3511    7.3031 C.3     1  UNL1        0.0986
     26 C          61.5887   85.7747    8.6641 C.3     1  UNL1        0.1342
     27 H          59.6654   86.4713    6.3263 H       1  UNL1        0.1233
     28 O          62.9379   85.4983    9.2584 O.3     1  UNL1       -0.3500
     29 C          63.4094   84.0840    9.4233 C.3     1  UNL1        0.1686
     30 C          63.3165   83.4135   10.7618 C.ar    1  UNL1        0.0087
     31 C          63.2512   81.9174   10.8484 C.ar    1  UNL1       -0.0018
     32 C          63.1583   81.2469   12.1870 C.ar    1  UNL1        0.0012
     33 C          63.1305   82.0725   13.4390 C.ar    1  UNL1        0.0175
     34 C          63.1957   83.5686   13.3525 C.ar    1  UNL1        0.0638
     35 C          63.2887   84.2391   12.0139 C.ar    1  UNL1        0.0157
     36 N          63.1680   84.3941   14.6045 N.ar    1  UNL1       -0.3036
     37 C          64.2017   85.3977   15.0221 C.ar    1  UNL1        0.0802
     38 C          63.7742   85.9849   16.3345 C.ar    1  UNL1        0.0205
     39 C          62.4763   85.3443   16.7281 C.ar    1  UNL1        0.0205
     40 C          62.1015   84.3611   15.6590 C.ar    1  UNL1        0.0802
@<TRIPOS>BOND
     1    16    17    1
     2    17    15    1
     3    15    14    1
     4    14    13    1
     5    13    12    1
     6    12     4    1
     7     4     5   ar
     8     5     6   ar
     9     6     1    1
    10     1     2    2
    11     1     3   am
    12     3    21    1
    13    22    21    1
    14    22    23    1
    15    23    24    1
    16    24    25    1
    17    25    26    1
    18    26    28    1
    19    28    29    1
    20    29    30    1
    21    30    31   ar
    22    31    32   ar
    23    32    33   ar
    24    33    34   ar
    25    34    36    1
    26    36    37   ar
    27    37    38   ar
    28    38    39   ar
    29    39    40   ar
    30    34    35   ar
    31     3    18    1
    32    18    19    1
    33    18    20    1
    34     6     7   ar
    35     7     8   ar
    36     8     9   ar
    37     9    10    1
    38    10    11    1
    39     9     4   ar
    40    26    22    1
    41    35    30   ar
    42    40    36   ar
    43    24    27    1
@<TRIPOS>MOLECULE
*****
 40 43 0 0 0
SMALL
GASTEIGER

@<TRIPOS>ATOM
      1 C          62.7108   87.9836   11.9939 C.2     1  UNL1        0.2491
      2 O          63.3090   86.6651   12.3859 O.2     1  UNL1       -0.2699
      3 N          61.4368   88.0238   11.2032 N.am    1  UNL1       -0.2776
      4 C          64.2936   91.6162   11.7718 C.ar    1  UNL1        0.1723
      5 C          63.6178   90.3378   11.3731 C.ar    1  UNL1        0.0446
      6 C          63.3867   89.2620   12.3926 C.ar    1  UNL1        0.0568
      7 C          63.8315   89.4646   13.8107 C.ar    1  UNL1        0.0078
      8 C          64.5074   90.7430   14.2093 C.ar    1  UNL1        0.0402
      9 C          64.7384   91.8188   13.1899 C.ar    1  UNL1        0.1724
     10 O          65.4143   93.0972   13.5886 O.3     1  UNL1       -0.4684
     11 C          66.5116   93.0781   14.6111 C.3     1  UNL1        0.2526
     12 O          64.5247   92.6920   10.7523 O.3     1  UNL1       -0.4723
     13 C          65.8690   93.3490   10.6468 C.3     1  UNL1        0.2082
     14 C          67.0823   92.5273   10.3262 C.3     1  UNL1        0.0794
     15 C          68.1083   93.0485    9.3640 C.3     1  UNL1        0.1461
     16 C          67.6771   95.4629    8.5068 C.3     1  UNL1        0.1741
     17 O          68.4587   94.5070    9.3585 O.3     1  UNL1       -0.3510
     18 C          60.8386   89.3424   10.8112 C.3     1  UNL1        0.0757
     19 C          61.0872   89.9012    9.4416 C.3     1  UNL1        0.0215
     20 C          59.9919   90.1021   11.7889 C.3     1  UNL1        0.0215
     21 C          60.7609   86.7455   10.8045 C.3     1  UNL1        0.0974
     22 C          60.8022   86.2890    9.3762 C.3     1  UNL1        0.0642
     23 C          59.7173   86.4794    8.3580 C.3     1  UNL1        0.0728
     24 N          60.1803   85.8701    7.0679 N.3     1  UNL1       -0.2953
     25 C          61.5513   85.3032    7.2887 C.3     1  UNL1        0.0986
     26 C          61.9357   85.5621    8.7153 C.3     1  UNL1        0.1342
     27 H          60.2140   86.5842    6.3403 H       1  UNL1        0.1233
     28 O          63.2269   85.1639    9.3667 O.3     1  UNL1       -0.3500
     29 C          63.5362   83.7140    9.5945 C.3     1  UNL1        0.1686
     30 C          63.3481   83.1117   10.9553 C.ar    1  UNL1        0.0087
     31 C          63.1706   81.6294   11.1014 C.ar    1  UNL1       -0.0018
     32 C          62.9825   81.0271   12.4622 C.ar    1  UNL1        0.0012
     33 C          62.9720   81.9070   13.6770 C.ar    1  UNL1        0.0175
     34 C          63.1495   83.3893   13.5308 C.ar    1  UNL1        0.0638
     35 C          63.3376   83.9916   12.1700 C.ar    1  UNL1        0.0157
     36 N          63.1390   84.2692   14.7456 N.ar    1  UNL1       -0.3036
     37 C          64.2516   85.1716   15.1904 C.ar    1  UNL1        0.0802
     38 C          63.8142   85.8613   16.4485 C.ar    1  UNL1        0.0205
     39 C          62.4312   85.3854   16.7813 C.ar    1  UNL1        0.0205
     40 C          62.0138   84.4014   15.7288 C.ar    1  UNL1        0.0802
@<TRIPOS>BOND
     1    16    17    1
     2    17    15    1
     3    15    14    1
     4    14    13    1
     5    13    12    1
     6    12     4    1
     7     4     5   ar
     8     5     6   ar
     9     6     1    1
    10     1     2    2
    11     1     3   am
    12     3    21    1
    13    22    21    1
    14    22    23    1
    15    23    24    1
    16    24    25    1
    17    25    26    1
    18    26    28    1
    19    28    29    1
    20    29    30    1
    21    30    31   ar
    22    31    32   ar
    23    32    33   ar
    24    33    34   ar
    25    34    36    1
    26    36    37   ar
    27    37    38   ar
    28    38    39   ar
    29    39    40   ar
    30    34    35   ar
    31     3    18    1
    32    18    19    1
    33    18    20    1
    34     6     7   ar
    35     7     8   ar
    36     8     9   ar
    37     9    10    1
    38    10    11    1
    39     9     4   ar
    40    26    22    1
    41    35    30   ar
    42    40    36   ar
    43    24    27    1
@<TRIPOS>MOLECULE
*****
 40 43 0 0 0
SMALL
GASTEIGER

@<TRIPOS>ATOM
      1 C          64.0764   90.5993   12.0666 C.2     1  UNL1        0.2491
      2 O          63.8277   90.8434   10.6076 O.2     1  UNL1       -0.2699
      3 N          63.4009   89.4542   12.7612 N.am    1  UNL1       -0.2776
      4 C          66.3176   93.7314   13.0241 C.ar    1  UNL1        0.1723
      5 C          65.3935   92.8304   12.2598 C.ar    1  UNL1        0.0446
      6 C          65.0006   91.5002   12.8309 C.ar    1  UNL1        0.0568
      7 C          65.5319   91.0709   14.1664 C.ar    1  UNL1        0.0078
      8 C          66.4561   91.9719   14.9307 C.ar    1  UNL1        0.0402
      9 C          66.8489   93.3021   14.3595 C.ar    1  UNL1        0.1724
     10 O          67.7731   94.2030   15.1239 O.3     1  UNL1       -0.4684
     11 C          68.9291   93.6220   15.8829 C.3     1  UNL1        0.2526
     12 O          66.7105   95.0616   12.4530 O.3     1  UNL1       -0.4723
     13 C          66.1105   95.5295   11.1604 C.3     1  UNL1        0.2082
     14 C          67.0003   95.8981   10.0104 C.3     1  UNL1        0.0794
     15 C          67.5881   94.8247    9.1429 C.3     1  UNL1        0.1461
     16 C          68.7537   92.5086    9.3080 C.3     1  UNL1        0.1741
     17 O          68.7011   93.9647    9.6643 O.3     1  UNL1       -0.3510
     18 C          63.6496   89.2101   14.2202 C.3     1  UNL1        0.0757
     19 C          63.0367   90.1154   15.2472 C.3     1  UNL1        0.0215
     20 C          64.5112   88.0607   14.6521 C.3     1  UNL1        0.0215
     21 C          62.4767   88.5533   11.9969 C.3     1  UNL1        0.0974
     22 C          61.4779   89.1384   11.0430 C.3     1  UNL1        0.0642
     23 C          60.5324   90.2649   11.3376 C.3     1  UNL1        0.0728
     24 N          59.7193   90.5225   10.1036 N.3     1  UNL1       -0.2953
     25 C          60.1624   89.5551    9.0463 C.3     1  UNL1        0.0986
     26 C          61.2492   88.6997    9.6269 C.3     1  UNL1        0.1342
     27 H          59.8704   91.4789    9.7830 H       1  UNL1        0.1233
     28 O          61.9793   87.5989    8.9161 O.3     1  UNL1       -0.3500
     29 C          61.5510   86.1734    9.1012 C.3     1  UNL1        0.1686
     30 C          62.4250   85.2202    9.8612 C.ar    1  UNL1        0.0087
     31 C          63.3037   84.2557    9.1213 C.ar    1  UNL1       -0.0018
     32 C          64.1778   83.3026    9.8814 C.ar    1  UNL1        0.0012
     33 C          64.1731   83.3140   11.3813 C.ar    1  UNL1        0.0175
     34 C          63.2944   84.2786   12.1212 C.ar    1  UNL1        0.0638
     35 C          62.4203   85.2317   11.3612 C.ar    1  UNL1        0.0157
     36 N          63.2897   84.2900   13.6212 N.ar    1  UNL1       -0.3036
     37 C          62.1016   84.0370   14.5012 C.ar    1  UNL1        0.0802
     38 C          62.5499   84.1471   15.9283 C.ar    1  UNL1        0.0205
     39 C          64.0152   84.4681   15.9305 C.ar    1  UNL1        0.0205
     40 C          64.4724   84.5564   14.5045 C.ar    1  UNL1        0.0802
@<TRIPOS>BOND
     1    16    17    1
     2    17    15    1
     3    15    14    1
     4    14    13    1
     5    13    12    1
     6    12     4    1
     7     4     5   ar
     8     5     6   ar
     9     6     1    1
    10     1     2    2
    11     1     3   am
    12     3    21    1
    13    22    21    1
    14    22    23    1
    15    23    24    1
    16    24    25    1
    17    25    26    1
    18    26    28    1
    19    28    29    1
    20    29    30    1
    21    30    31   ar
    22    31    32   ar
    23    32    33   ar
    24    33    34   ar
    25    34    36    1
    26    36    37   ar
    27    37    38   ar
    28    38    39   ar
    29    39    40   ar
    30    34    35   ar
    31     3    18    1
    32    18    19    1
    33    18    20    1
    34     6     7   ar
    35     7     8   ar
    36     8     9   ar
    37     9    10    1
    38    10    11    1
    39     9     4   ar
    40    26    22    1
    41    35    30   ar
    42    40    36   ar
    43    24    27    1
@<TRIPOS>MOLECULE
*****
 40 43 0 0 0
SMALL
GASTEIGER

@<TRIPOS>ATOM
      1 C          62.4377   87.6803   11.4055 C.2     1  UNL1        0.2491
      2 O          63.1340   86.8969   12.4784 O.2     1  UNL1       -0.2699
      3 N          62.1952   89.1494   11.5870 N.am    1  UNL1       -0.2776
      4 C          60.1384   86.5313    8.3817 C.ar    1  UNL1        0.1723
      5 C          60.5924   87.2169    9.6362 C.ar    1  UNL1        0.0446
      6 C          61.9837   86.9946   10.1509 C.ar    1  UNL1        0.0568
      7 C          62.9210   86.0868    9.4111 C.ar    1  UNL1        0.0078
      8 C          62.4670   85.4012    8.1567 C.ar    1  UNL1        0.0402
      9 C          61.0757   85.6234    7.6419 C.ar    1  UNL1        0.1724
     10 O          60.6217   84.9378    6.3874 O.3     1  UNL1       -0.4684
     11 C          61.6076   84.1811    5.5474 C.3     1  UNL1        0.2526
     12 O          58.7471   86.7535    7.8669 O.3     1  UNL1       -0.4723
     13 C          58.4047   88.0304    7.1582 C.3     1  UNL1        0.2082
     14 C          59.3936   89.1577    7.1241 C.3     1  UNL1        0.0794
     15 C          59.5128   90.0141    5.8983 C.3     1  UNL1        0.1461
     16 C          58.6123   91.9765    4.4534 C.3     1  UNL1        0.1741
     17 O          58.4008   90.9493    5.5257 O.3     1  UNL1       -0.3510
     18 C          61.4988   89.9328   10.5140 C.3     1  UNL1        0.0757
     19 C          62.2471   90.3459    9.2814 C.3     1  UNL1        0.0215
     20 C          60.0540   90.3032   10.6736 C.3     1  UNL1        0.0215
     21 C          62.6492   89.8351   12.8415 C.3     1  UNL1        0.0974
     22 C          63.8210   90.7707   12.8029 C.3     1  UNL1        0.0642
     23 C          64.1256   91.7578   11.7153 C.3     1  UNL1        0.0728
     24 N          65.3868   92.4807   12.0853 N.3     1  UNL1       -0.2953
     25 C          65.8616   91.9403   13.4016 C.3     1  UNL1        0.0986
     26 C          64.8939   90.8835   13.8450 C.3     1  UNL1        0.1342
     27 H          65.2013   93.4802   12.1681 H       1  UNL1        0.1233
     28 O          64.9834   90.0804   15.1088 O.3     1  UNL1       -0.3500
     29 C          63.7430   89.7829   15.8978 C.3     1  UNL1        0.1686
     30 C          63.4487   88.3773   16.3311 C.ar    1  UNL1        0.0087
     31 C          62.9462   88.1100   17.7189 C.ar    1  UNL1       -0.0018
     32 C          62.6519   86.7044   18.1522 C.ar    1  UNL1        0.0012
     33 C          62.8602   85.5661   17.1977 C.ar    1  UNL1        0.0175
     34 C          63.3628   85.8335   15.8100 C.ar    1  UNL1        0.0638
     35 C          63.6571   87.2391   15.3767 C.ar    1  UNL1        0.0157
     36 N          63.5711   84.6953   14.8555 N.ar    1  UNL1       -0.3036
     37 C          62.5274   83.7127   14.4137 C.ar    1  UNL1        0.0802
     38 C          63.1710   82.7499   13.4604 C.ar    1  UNL1        0.0205
     39 C          64.6125   83.1374   13.3129 C.ar    1  UNL1        0.0205
     40 C          64.8599   84.3397   14.1752 C.ar    1  UNL1        0.0802
@<TRIPOS>BOND
     1    16    17    1
     2    17    15    1
     3    15    14    1
     4    14    13    1
     5    13    12    1
     6    12     4    1
     7     4     5   ar
     8     5     6   ar
     9     6     1    1
    10     1     2    2
    11     1     3   am
    12     3    21    1
    13    22    21    1
    14    22    23    1
    15    23    24    1
    16    24    25    1
    17    25    26    1
    18    26    28    1
    19    28    29    1
    20    29    30    1
    21    30    31   ar
    22    31    32   ar
    23    32    33   ar
    24    33    34   ar
    25    34    36    1
    26    36    37   ar
    27    37    38   ar
    28    38    39   ar
    29    39    40   ar
    30    34    35   ar
    31     3    18    1
    32    18    19    1
    33    18    20    1
    34     6     7   ar
    35     7     8   ar
    36     8     9   ar
    37     9    10    1
    38    10    11    1
    39     9     4   ar
    40    26    22    1
    41    35    30   ar
    42    40    36   ar
    43    24    27    1
@<TRIPOS>MOLECULE
*****
 40 43 0 0 0
SMALL
GASTEIGER

@<TRIPOS>ATOM
      1 C          63.2466   88.9088   12.6818 C.2     1  UNL1        0.2491
      2 O          63.5513   87.5286   13.1840 O.2     1  UNL1       -0.2699
      3 N          62.1811   89.1117   11.6456 N.am    1  UNL1       -0.2776
      4 C          65.6457   92.0664   12.8359 C.ar    1  UNL1        0.1723
      5 C          64.8850   90.8891   12.3019 C.ar    1  UNL1        0.0446
      6 C          64.0074   90.0862   13.2158 C.ar    1  UNL1        0.0568
      7 C          63.8905   90.4607   14.6636 C.ar    1  UNL1        0.0078
      8 C          64.6512   91.6380   15.1975 C.ar    1  UNL1        0.0402
      9 C          65.5288   92.4409   14.2836 C.ar    1  UNL1        0.1724
     10 O          66.2896   93.6183   14.8176 O.3     1  UNL1       -0.4684
     11 C          67.6095   93.4116   15.4996 C.3     1  UNL1        0.2526
     12 O          66.5234   92.8693   11.9220 O.3     1  UNL1       -0.4723
     13 C          66.1458   94.2763   11.5645 C.3     1  UNL1        0.2082
     14 C          66.1408   94.7096   10.1285 C.3     1  UNL1        0.0794
     15 C          67.4230   94.7430    9.3506 C.3     1  UNL1        0.1461
     16 C          68.8165   92.5559    9.1945 C.3     1  UNL1        0.1741
     17 O          68.5907   93.9123    9.7936 O.3     1  UNL1       -0.3510
     18 C          61.8764   90.4920   11.1435 C.3     1  UNL1        0.0757
     19 C          60.6276   91.1934   11.5888 C.3     1  UNL1        0.0215
     20 C          62.8207   91.1708   10.1960 C.3     1  UNL1        0.0215
     21 C          61.4204   87.9344   11.1116 C.3     1  UNL1        0.0974
     22 C          60.7838   88.0054    9.7553 C.3     1  UNL1        0.0642
     23 C          60.1396   89.2152    9.1459 C.3     1  UNL1        0.0728
     24 N          59.6373   88.8366    7.7841 N.3     1  UNL1       -0.2953
     25 C          59.9710   87.3927    7.5519 C.3     1  UNL1        0.0986
     26 C          60.6795   86.8791    8.7702 C.3     1  UNL1        0.1342
     27 H          60.0890   89.4146    7.0755 H       1  UNL1        0.1233
     28 O          61.1936   85.4839    8.9684 O.3     1  UNL1       -0.3500
     29 C          62.6684   85.2380    9.0885 C.3     1  UNL1        0.1686
     30 C          63.1995   84.3962   10.2108 C.ar    1  UNL1        0.0087
     31 C          63.9028   83.1055    9.9122 C.ar    1  UNL1       -0.0018
     32 C          64.4340   82.2637   11.0344 C.ar    1  UNL1        0.0012
     33 C          64.2618   82.7128   12.4552 C.ar    1  UNL1        0.0175
     34 C          63.5585   84.0036   12.7538 C.ar    1  UNL1        0.0638
     35 C          63.0273   84.8453   11.6315 C.ar    1  UNL1        0.0157
     36 N          63.3863   84.4527   14.1746 N.ar    1  UNL1       -0.3036
     37 C          64.4168   85.1544   15.0086 C.ar    1  UNL1        0.0802
     38 C          63.8207   85.4143   16.3603 C.ar    1  UNL1        0.0205
     39 C          62.4218   84.8732   16.3618 C.ar    1  UNL1        0.0205
     40 C          62.1532   84.2788   15.0109 C.ar    1  UNL1        0.0802
@<TRIPOS>BOND
     1    16    17    1
     2    17    15    1
     3    15    14    1
     4    14    13    1
     5    13    12    1
     6    12     4    1
     7     4     5   ar
     8     5     6   ar
     9     6     1    1
    10     1     2    2
    11     1     3   am
    12     3    21    1
    13    22    21    1
    14    22    23    1
    15    23    24    1
    16    24    25    1
    17    25    26    1
    18    26    28    1
    19    28    29    1
    20    29    30    1
    21    30    31   ar
    22    31    32   ar
    23    32    33   ar
    24    33    34   ar
    25    34    36    1
    26    36    37   ar
    27    37    38   ar
    28    38    39   ar
    29    39    40   ar
    30    34    35   ar
    31     3    18    1
    32    18    19    1
    33    18    20    1
    34     6     7   ar
    35     7     8   ar
    36     8     9   ar
    37     9    10    1
    38    10    11    1
    39     9     4   ar
    40    26    22    1
    41    35    30   ar
    42    40    36   ar
    43    24    27    1
@<TRIPOS>MOLECULE
*****
 40 43 0 0 0
SMALL
GASTEIGER

@<TRIPOS>ATOM
      1 C          63.5869   91.1654   12.6769 C.2     1  UNL1        0.2491
      2 O          62.9883   91.9293   11.5331 O.2     1  UNL1       -0.2699
      3 N          62.8073   90.0649   13.3335 N.am    1  UNL1       -0.2776
      4 C          67.4573   92.0429   12.6676 C.ar    1  UNL1        0.1723
      5 C          66.0791   91.7063   12.1805 C.ar    1  UNL1        0.0446
      6 C          64.9651   91.5020   13.1640 C.ar    1  UNL1        0.0568
      7 C          65.2293   91.6342   14.6346 C.ar    1  UNL1        0.0078
      8 C          66.6075   91.9708   15.1217 C.ar    1  UNL1        0.0402
      9 C          67.7215   92.1752   14.1382 C.ar    1  UNL1        0.1724
     10 O          69.0997   92.5118   14.6253 O.3     1  UNL1       -0.4684
     11 C          69.2873   93.5665   15.6752 C.3     1  UNL1        0.2526
     12 O          68.5713   92.2473   11.6841 O.3     1  UNL1       -0.4723
     13 C          68.3815   91.8655   10.2460 C.3     1  UNL1        0.2082
     14 C          68.4755   92.9104    9.1739 C.3     1  UNL1        0.0794
     15 C          67.5302   94.0751    9.1769 C.3     1  UNL1        0.1461
     16 C          66.1161   95.3323   10.9573 C.3     1  UNL1        0.1741
     17 O          67.4512   94.9739   10.3752 O.3     1  UNL1       -0.3510
     18 C          63.4060   89.3010   14.4773 C.3     1  UNL1        0.0757
     19 C          63.1243   89.7216   15.8892 C.3     1  UNL1        0.0215
     20 C          64.2863   88.1164   14.2090 C.3     1  UNL1        0.0215
     21 C          61.4291   89.7283   12.8464 C.3     1  UNL1        0.0974
     22 C          61.2256   89.2609   11.4357 C.3     1  UNL1        0.0642
     23 C          61.0057   90.1385   10.2392 C.3     1  UNL1        0.0728
     24 N          60.8504   89.2539    9.0378 N.3     1  UNL1       -0.2953
     25 C          60.9743   87.8296    9.4917 C.3     1  UNL1        0.0986
     26 C          61.2061   87.8340   10.9737 C.3     1  UNL1        0.1342
     27 H          61.5794   89.4646    8.3562 H       1  UNL1        0.1233
     28 O          61.3868   86.6238   11.8414 O.3     1  UNL1       -0.3500
     29 C          62.7085   85.9154   11.8747 C.3     1  UNL1        0.1686
     30 C          62.8229   84.5716   12.5313 C.ar    1  UNL1        0.0087
     31 C          62.9769   84.4750   14.0202 C.ar    1  UNL1       -0.0018
     32 C          63.0913   83.1312   14.6768 C.ar    1  UNL1        0.0012
     33 C          63.0517   81.8839   13.8444 C.ar    1  UNL1        0.0175
     34 C          62.8976   81.9805   12.3555 C.ar    1  UNL1        0.0638
     35 C          62.7832   83.3243   11.6990 C.ar    1  UNL1        0.0157
     36 N          62.8579   80.7333   11.5232 N.ar    1  UNL1       -0.3036
     37 C          63.0868   80.6534   10.0429 C.ar    1  UNL1        0.0802
     38 C          62.9527   79.2177    9.6298 C.ar    1  UNL1        0.0205
     39 C          62.6410   78.4101   10.8548 C.ar    1  UNL1        0.0205
     40 C          62.5824   79.3467   12.0250 C.ar    1  UNL1        0.0802
@<TRIPOS>BOND
     1    16    17    1
     2    17    15    1
     3    15    14    1
     4    14    13    1
     5    13    12    1
     6    12     4    1
     7     4     5   ar
     8     5     6   ar
     9     6     1    1
    10     1     2    2
    11     1     3   am
    12     3    21    1
    13    22    21    1
    14    22    23    1
    15    23    24    1
    16    24    25    1
    17    25    26    1
    18    26    28    1
    19    28    29    1
    20    29    30    1
    21    30    31   ar
    22    31    32   ar
    23    32    33   ar
    24    33    34   ar
    25    34    36    1
    26    36    37   ar
    27    37    38   ar
    28    38    39   ar
    29    39    40   ar
    30    34    35   ar
    31     3    18    1
    32    18    19    1
    33    18    20    1
    34     6     7   ar
    35     7     8   ar
    36     8     9   ar
    37     9    10    1
    38    10    11    1
    39     9     4   ar
    40    26    22    1
    41    35    30   ar
    42    40    36   ar
    43    24    27    1
@<TRIPOS>MOLECULE
*****
 40 43 0 0 0
SMALL
GASTEIGER

@<TRIPOS>ATOM
      1 C          62.4660   84.4591   14.7522 C.2     1  UNL1        0.2491
      2 O          61.0891   84.8792   15.1736 O.2     1  UNL1       -0.2699
      3 N          63.6641   84.9453   15.5125 N.am    1  UNL1       -0.2776
      4 C          63.2250   83.2165   11.0603 C.ar    1  UNL1        0.1723
      5 C          63.0461   84.1227   12.2421 C.ar    1  UNL1        0.0446
      6 C          62.6448   83.5528   13.5703 C.ar    1  UNL1        0.0568
      7 C          62.4223   82.0767   13.7167 C.ar    1  UNL1        0.0078
      8 C          62.6011   81.1704   12.5349 C.ar    1  UNL1        0.0402
      9 C          63.0024   81.7403   11.2067 C.ar    1  UNL1        0.1724
     10 O          63.1813   80.8340   10.0248 O.3     1  UNL1       -0.4684
     11 C          62.8328   79.3793   10.1358 C.3     1  UNL1        0.2526
     12 O          63.6263   83.7864    9.7321 O.3     1  UNL1       -0.4723
     13 C          63.0460   85.0897    9.2689 C.3     1  UNL1        0.2082
     14 C          62.5136   85.2196    7.8726 C.3     1  UNL1        0.0794
     15 C          61.0832   85.6124    7.6489 C.3     1  UNL1        0.1461
     16 C          59.2091   87.4054    7.7998 C.3     1  UNL1        0.1741
     17 O          60.5659   86.9074    8.2013 O.3     1  UNL1       -0.3510
     18 C          65.0410   84.5252   15.0910 C.3     1  UNL1        0.0757
     19 C          65.3589   83.0705   14.9102 C.3     1  UNL1        0.0215
     20 C          66.1001   85.5598   14.8503 C.3     1  UNL1        0.0215
     21 C          63.4853   85.8516   16.6943 C.3     1  UNL1        0.0974
     22 C          63.3784   87.3342   16.4931 C.3     1  UNL1        0.0642
     23 C          63.0456   88.3456   17.5496 C.3     1  UNL1        0.0728
     24 N          63.0471   89.7022   16.9096 N.3     1  UNL1       -0.2953
     25 C          63.3808   89.5292   15.4575 C.3     1  UNL1        0.0986
     26 C          63.5856   88.0657   15.2001 C.3     1  UNL1        0.1342
     27 H          63.7459   90.2953   17.3571 H       1  UNL1        0.1233
     28 O          63.9361   87.4431   13.8812 O.3     1  UNL1       -0.3500
     29 C          63.0175   87.6067   12.7068 C.3     1  UNL1        0.1686
     30 C          63.0681   88.8597   11.8837 C.ar    1  UNL1        0.0087
     31 C          62.2031   88.9922   10.6655 C.ar    1  UNL1       -0.0018
     32 C          62.2537   90.2452    9.8424 C.ar    1  UNL1        0.0012
     33 C          63.1695   91.3656   10.2375 C.ar    1  UNL1        0.0175
     34 C          64.0345   91.2330   11.4558 C.ar    1  UNL1        0.0638
     35 C          63.9839   89.9801   12.2789 C.ar    1  UNL1        0.0157
     36 N          64.9503   92.3534   11.8509 N.ar    1  UNL1       -0.3036
     37 C          65.3831   93.4899   10.9727 C.ar    1  UNL1        0.0802
     38 C          66.2943   94.3729   11.7727 C.ar    1  UNL1        0.0205
     39 C          66.4247   93.7823   13.1453 C.ar    1  UNL1        0.0205
     40 C          65.5940   92.5342   13.1937 C.ar    1  UNL1        0.0802
@<TRIPOS>BOND
     1    16    17    1
     2    17    15    1
     3    15    14    1
     4    14    13    1
     5    13    12    1
     6    12     4    1
     7     4     5   ar
     8     5     6   ar
     9     6     1    1
    10     1     2    2
    11     1     3   am
    12     3    21    1
    13    22    21    1
    14    22    23    1
    15    23    24    1
    16    24    25    1
    17    25    26    1
    18    26    28    1
    19    28    29    1
    20    29    30    1
    21    30    31   ar
    22    31    32   ar
    23    32    33   ar
    24    33    34   ar
    25    34    36    1
    26    36    37   ar
    27    37    38   ar
    28    38    39   ar
    29    39    40   ar
    30    34    35   ar
    31     3    18    1
    32    18    19    1
    33    18    20    1
    34     6     7   ar
    35     7     8   ar
    36     8     9   ar
    37     9    10    1
    38    10    11    1
    39     9     4   ar
    40    26    22    1
    41    35    30   ar
    42    40    36   ar
    43    24    27    1
@<TRIPOS>MOLECULE
*****
 40 43 0 0 0
SMALL
GASTEIGER

@<TRIPOS>ATOM
      1 C          64.5309   84.4827   13.3701 C.2     1  UNL1        0.2491
      2 O          65.6206   84.2761   14.3800 O.2     1  UNL1       -0.2699
      3 N          63.8670   85.8221   13.2465 N.am    1  UNL1       -0.2776
      4 C          62.9123   81.0630   12.1717 C.ar    1  UNL1        0.1723
      5 C          63.3382   82.1958   13.0579 C.ar    1  UNL1        0.0446
      6 C          64.1051   83.3499   12.4837 C.ar    1  UNL1        0.0568
      7 C          64.4462   83.3713   11.0232 C.ar    1  UNL1        0.0078
      8 C          64.0204   82.2386   10.1369 C.ar    1  UNL1        0.0402
      9 C          63.2535   81.0845   10.7112 C.ar    1  UNL1        0.1724
     10 O          62.8276   79.9517    9.8248 O.3     1  UNL1       -0.4684
     11 C          62.9561   78.5358   10.3033 C.3     1  UNL1        0.2526
     12 O          62.1454   79.9089   12.7459 O.3     1  UNL1       -0.4723
     13 C          61.4524   80.0526   14.0684 C.3     1  UNL1        0.2082
     14 C          60.1291   80.7542   14.1494 C.3     1  UNL1        0.0794
     15 C          58.8603   79.9568   14.2168 C.3     1  UNL1        0.1461
     16 C          57.2139   80.1090   16.2208 C.3     1  UNL1        0.1741
     17 O          58.3687   79.4398   15.5363 O.3     1  UNL1       -0.3510
     18 C          62.7773   86.0287   12.2366 C.3     1  UNL1        0.0757
     19 C          62.7681   87.2636   11.3852 C.3     1  UNL1        0.0215
     20 C          61.6968   85.0004   12.0781 C.3     1  UNL1        0.0215
     21 C          64.2928   86.9548   14.1328 C.3     1  UNL1        0.0974
     22 C          63.7497   87.0613   15.5270 C.3     1  UNL1        0.0642
     23 C          63.7120   85.9604   16.5450 C.3     1  UNL1        0.0728
     24 N          63.0879   86.5061   17.7951 N.3     1  UNL1       -0.2953
     25 C          62.7398   87.9443   17.5496 C.3     1  UNL1        0.0986
     26 C          63.1488   88.2875   16.1479 C.3     1  UNL1        0.1342
     27 H          63.7476   86.4369   18.5700 H       1  UNL1        0.1233
     28 O          62.9856   89.6225   15.4836 O.3     1  UNL1       -0.3500
     29 C          64.1452   90.2521   14.7704 C.3     1  UNL1        0.1686
     30 C          63.9908   90.7174   13.3528 C.ar    1  UNL1        0.0087
     31 C          62.8072   90.2769   12.5435 C.ar    1  UNL1       -0.0018
     32 C          62.6528   90.7422   11.1259 C.ar    1  UNL1        0.0012
     33 C          63.6820   91.6481   10.5175 C.ar    1  UNL1        0.0175
     34 C          64.8656   92.0887   11.3268 C.ar    1  UNL1        0.0638
     35 C          65.0200   91.6233   12.7444 C.ar    1  UNL1        0.0157
     36 N          65.8948   92.9946   10.7185 N.ar    1  UNL1       -0.3036
     37 C          65.8474   94.4937   10.6965 C.ar    1  UNL1        0.0802
     38 C          67.0755   94.9860    9.9898 C.ar    1  UNL1        0.0205
     39 C          67.8819   93.7912    9.5749 C.ar    1  UNL1        0.0205
     40 C          67.1522   92.5604   10.0253 C.ar    1  UNL1        0.0802
@<TRIPOS>BOND
     1    16    17    1
     2    17    15    1
     3    15    14    1
     4    14    13    1
     5    13    12    1
     6    12     4    1
     7     4     5   ar
     8     5     6   ar
     9     6     1    1
    10     1     2    2
    11     1     3   am
    12     3    21    1
    13    22    21    1
    14    22    23    1
    15    23    24    1
    16    24    25    1
    17    25    26    1
    18    26    28    1
    19    28    29    1
    20    29    30    1
    21    30    31   ar
    22    31    32   ar
    23    32    33   ar
    24    33    34   ar
    25    34    36    1
    26    36    37   ar
    27    37    38   ar
    28    38    39   ar
    29    39    40   ar
    30    34    35   ar
    31     3    18    1
    32    18    19    1
    33    18    20    1
    34     6     7   ar
    35     7     8   ar
    36     8     9   ar
    37     9    10    1
    38    10    11    1
    39     9     4   ar
    40    26    22    1
    41    35    30   ar
    42    40    36   ar
    43    24    27    1
@<TRIPOS>MOLECULE
*****
 40 43 0 0 0
SMALL
GASTEIGER

@<TRIPOS>ATOM
      1 C          62.7399   90.1553   13.2690 C.2     1  UNL1        0.2491
      2 O          61.5211   89.5201   12.6683 O.2     1  UNL1       -0.2699
      3 N          63.0791   89.9130   14.7099 N.am    1  UNL1       -0.2776
      4 C          65.5480   92.7637   12.2386 C.ar    1  UNL1        0.1723
      5 C          64.6683   91.8861   13.0788 C.ar    1  UNL1        0.0446
      6 C          63.6196   91.0330   12.4287 C.ar    1  UNL1        0.0568
      7 C          63.4507   91.0574   10.9385 C.ar    1  UNL1        0.0078
      8 C          64.3304   91.9350   10.0983 C.ar    1  UNL1        0.0402
      9 C          65.3790   92.7881   10.7484 C.ar    1  UNL1        0.1724
     10 O          66.2587   93.6658    9.9081 O.3     1  UNL1       -0.4684
     11 C          67.6554   93.2304    9.5768 C.3     1  UNL1        0.2526
     12 O          66.5966   93.6168   12.8887 O.3     1  UNL1       -0.4723
     13 C          66.6160   93.7752   14.3801 C.3     1  UNL1        0.2082
     14 C          67.9226   93.7808   15.1168 C.3     1  UNL1        0.0794
     15 C          68.8037   92.5671   15.0905 C.3     1  UNL1        0.1461
     16 C          68.9843   91.5450   12.7088 C.3     1  UNL1        0.1741
     17 O          69.6160   92.2565   13.8683 O.3     1  UNL1       -0.3510
     18 C          64.2980   90.5483   15.3105 C.3     1  UNL1        0.0757
     19 C          64.1505   91.6169   16.3527 C.3     1  UNL1        0.0215
     20 C          65.6645   90.1149   14.8690 C.3     1  UNL1        0.0215
     21 C          62.1995   89.0354   15.5501 C.3     1  UNL1        0.0974
     22 C          62.7667   87.8096   16.2026 C.3     1  UNL1        0.0642
     23 C          62.8141   87.5374   17.6769 C.3     1  UNL1        0.0728
     24 N          63.4628   86.2003   17.8808 N.3     1  UNL1       -0.2953
     25 C          63.8163   85.6462   16.5324 C.3     1  UNL1        0.0986
     26 C          63.3861   86.6408   15.4953 C.3     1  UNL1        0.1342
     27 H          62.8158   85.5704   18.3551 H       1  UNL1        0.1233
     28 O          63.5470   86.4926   14.0113 O.3     1  UNL1       -0.3500
     29 C          63.2045   85.1928   13.3459 C.3     1  UNL1        0.1686
     30 C          63.0286   85.1356   11.8573 C.ar    1  UNL1        0.0087
     31 C          63.7642   84.1043   11.0541 C.ar    1  UNL1       -0.0018
     32 C          63.5882   84.0471    9.5656 C.ar    1  UNL1        0.0012
     33 C          62.6766   85.0214    8.8802 C.ar    1  UNL1        0.0175
     34 C          61.9410   86.0528    9.6834 C.ar    1  UNL1        0.0638
     35 C          62.1170   86.1099   11.1719 C.ar    1  UNL1        0.0157
     36 N          61.0294   87.0271    8.9980 N.ar    1  UNL1       -0.3036
     37 C          60.9650   88.5039    9.2531 C.ar    1  UNL1        0.0802
     38 C          59.9179   89.0851    8.3499 C.ar    1  UNL1        0.0205
     39 C          59.3352   87.9677    7.5365 C.ar    1  UNL1        0.0205
     40 C          60.0221   86.6957    7.9369 C.ar    1  UNL1        0.0802
@<TRIPOS>BOND
     1    16    17    1
     2    17    15    1
     3    15    14    1
     4    14    13    1
     5    13    12    1
     6    12     4    1
     7     4     5   ar
     8     5     6   ar
     9     6     1    1
    10     1     2    2
    11     1     3   am
    12     3    21    1
    13    22    21    1
    14    22    23    1
    15    23    24    1
    16    24    25    1
    17    25    26    1
    18    26    28    1
    19    28    29    1
    20    29    30    1
    21    30    31   ar
    22    31    32   ar
    23    32    33   ar
    24    33    34   ar
    25    34    36    1
    26    36    37   ar
    27    37    38   ar
    28    38    39   ar
    29    39    40   ar
    30    34    35   ar
    31     3    18    1
    32    18    19    1
    33    18    20    1
    34     6     7   ar
    35     7     8   ar
    36     8     9   ar
    37     9    10    1
    38    10    11    1
    39     9     4   ar
    40    26    22    1
    41    35    30   ar
    42    40    36   ar
    43    24    27    1
