@<TRIPOS>MOLECULE
*****
 42 46 0 0 0
SMALL
GASTEIGER

@<TRIPOS>ATOM
      1 C          60.7731   90.8225    5.5767 C.ar    1  UNL1        0.0506
      2 C          59.3401   91.2281    5.3978 C.ar    1  UNL1        0.0144
      3 C          58.9227   91.9865    4.1728 C.ar    1  UNL1       -0.0030
      4 C          59.9383   92.3394    3.1269 C.ar    1  UNL1       -0.0223
      5 C          61.3713   91.9338    3.3058 C.ar    1  UNL1       -0.0030
      6 C          61.7887   91.1754    4.5307 C.ar    1  UNL1        0.0144
      7 C          59.5209   93.0979    1.9019 C.3     1  UNL1        0.0257
      8 C          58.8633   92.3782    0.7619 C.3     1  UNL1        0.0259
      9 C          58.4459   93.1367   -0.4631 C.3     1  UNL1        0.0937
     10 N          58.6860   94.6149   -0.5480 N.am    1  UNL1       -0.2795
     11 C          58.2686   95.3734   -1.7729 C.2     1  UNL1        0.2251
     12 O          58.5088   96.8516   -1.8578 O.2     1  UNL1       -0.2749
     13 C          59.3436   95.3346    0.5921 C.3     1  UNL1        0.0937
     14 C          59.7610   94.5761    1.8170 C.3     1  UNL1        0.0259
     15 C          57.6111   94.6537   -2.9128 C.3     1  UNL1        0.0767
     16 C          58.4337   93.8119   -3.8427 C.3     1  UNL1        0.0094
     17 C          57.7761   93.0921   -4.9827 C.3     1  UNL1        0.0060
     18 C          56.2959   93.2142   -5.1928 C.3     1  UNL1        0.0366
     19 C          55.4733   94.0561   -4.2630 C.3     1  UNL1        0.0060
     20 C          56.1309   94.7758   -3.1230 C.3     1  UNL1        0.0094
     21 C          55.6383   92.4945   -6.3328 C.2     1  UNL1        0.0500
     22 O          55.4141   91.0134   -6.2552 O.co2   1  UNL1       -0.5492
     23 O          55.2050   93.2559   -7.5504 O.co2   1  UNL1       -0.5492
     24 O          58.8679   88.9021    6.8738 O.2     1  UNL1       -0.2681
     25 C          60.2379   89.1039    7.4502 C.2     1  UNL1        0.2703
     26 N          61.1905   90.0640    6.8017 N.am    1  UNL1       -0.2791
     27 H          62.0897   90.1964    7.1800 H       1  UNL1        0.1552
     28 C          60.6554   88.3454    8.6752 C.ar    1  UNL1        0.1763
     29 N          61.3732   87.0284    8.6947 N.ar    1  UNL1       -0.2037
     30 C          61.5898   86.6397   10.1272 C.ar    1  UNL1        0.2298
     31 O          61.0058   87.7165   10.9930 O.2     1  UNL1       -0.4304
     32 C          60.4283   88.7706   10.0956 C.ar    1  UNL1        0.2404
     33 C          62.2708   85.3932   10.6093 C.ar    1  UNL1        0.0536
     34 C          62.1334   84.9697   12.0417 C.ar    1  UNL1        0.0046
     35 C          62.8144   83.7231   12.5238 C.ar    1  UNL1        0.0002
     36 C          63.6327   82.9002   11.5735 C.ar    1  UNL1        0.0000
     37 C          63.7700   83.3238   10.1411 C.ar    1  UNL1        0.0002
     38 C          63.0891   84.5703    9.6590 C.ar    1  UNL1        0.0046
     39 C          59.7439   90.0291   10.5404 C.3     1  UNL1        0.4528
     40 F          59.0595   91.2875   10.9852 F       1  UNL1       -0.1631
     41 F          60.8688   90.8420    9.9714 F       1  UNL1       -0.1631
     42 F          58.6189   89.2162   11.1094 F       1  UNL1       -0.1631
@<TRIPOS>UNITY_ATOM_ATTR
22 1
charge -1
@<TRIPOS>BOND
     1    24    25    2
     2    25    26   am
     3    26     1    1
     4     1     2   ar
     5     2     3   ar
     6     3     4   ar
     7     4     7    1
     8     7     8    1
     9     8     9    1
    10     9    10    1
    11    10    11   am
    12    11    12    2
    13    15    11    1
    14    15    16    1
    15    16    17    1
    16    17    18    1
    17    18    21    1
    18    21    22   ar
    19    21    23   ar
    20    18    19    1
    21    19    20    1
    22    10    13    1
    23    13    14    1
    24     4     5   ar
    25     5     6   ar
    26    25    28    1
    27    28    29   ar
    28    29    30   ar
    29    30    33    1
    30    33    34   ar
    31    34    35   ar
    32    35    36   ar
    33    36    37   ar
    34    37    38   ar
    35    30    31   ar
    36    31    32   ar
    37    32    39    1
    38    39    40    1
    39    39    41    1
    40    39    42    1
    41     6     1   ar
    42    32    28   ar
    43    14     7    1
    44    38    33   ar
    45    20    15    1
    46    26    27    1
@<TRIPOS>MOLECULE
*****
 42 46 0 0 0
SMALL
GASTEIGER

@<TRIPOS>ATOM
      1 C          60.9856   91.3478    4.7243 C.ar    1  UNL1        0.0506
      2 C          59.6023   91.8874    4.5114 C.ar    1  UNL1        0.0144
      3 C          59.2443   92.5408    3.2096 C.ar    1  UNL1       -0.0030
      4 C          60.2696   92.6546    2.1206 C.ar    1  UNL1       -0.0223
      5 C          61.6529   92.1150    2.3335 C.ar    1  UNL1       -0.0030
      6 C          62.0108   91.4616    3.6353 C.ar    1  UNL1        0.0144
      7 C          59.9115   93.3080    0.8187 C.3     1  UNL1        0.0257
      8 C          58.4711   93.5096    0.4519 C.3     1  UNL1        0.0259
      9 C          58.1131   94.1631   -0.8500 C.3     1  UNL1        0.0937
     10 N          59.1955   94.6149   -1.7851 N.am    1  UNL1       -0.2795
     11 C          58.8375   95.2683   -3.0869 C.2     1  UNL1        0.2251
     12 O          59.9199   95.7201   -4.0219 O.2     1  UNL1       -0.2749
     13 C          60.6359   94.4133   -1.4182 C.3     1  UNL1        0.0937
     14 C          60.9939   93.7598   -0.1163 C.3     1  UNL1        0.0259
     15 C          57.3971   95.4699   -3.4537 C.3     1  UNL1        0.0767
     16 C          56.6434   96.6489   -2.9133 C.3     1  UNL1        0.0094
     17 C          55.2030   96.8504   -3.2801 C.3     1  UNL1        0.0060
     18 C          54.5162   95.8731   -4.1874 C.3     1  UNL1        0.0366
     19 C          55.2699   94.6941   -4.7278 C.3     1  UNL1        0.0060
     20 C          56.7103   94.4925   -4.3610 C.3     1  UNL1        0.0094
     21 C          53.0759   96.0747   -4.5542 C.2     1  UNL1        0.0500
     22 O          52.6892   96.2827   -5.9885 O.co2   1  UNL1       -0.5492
     23 O          52.0221   96.0682   -3.4867 O.co2   1  UNL1       -0.5492
     24 O          58.9315   89.7479    6.2146 O.2     1  UNL1       -0.2681
     25 C          60.3166   89.8944    6.7713 C.2     1  UNL1        0.2703
     26 N          61.3436   90.6944    6.0262 N.am    1  UNL1       -0.2791
     27 H          62.2527   90.7906    6.3916 H       1  UNL1        0.1552
     28 C          60.6747   89.2410    8.0732 C.ar    1  UNL1        0.1763
     29 N          61.5716   89.8143    9.1300 N.ar    1  UNL1       -0.2037
     30 C          61.6500   88.8272   10.2569 C.ar    1  UNL1        0.2298
     31 O          60.8014   87.6439    9.8964 O.2     1  UNL1       -0.4304
     32 C          60.1986   87.8997    8.5468 C.ar    1  UNL1        0.2404
     33 C          62.4384   88.9940   11.5220 C.ar    1  UNL1        0.0536
     34 C          62.6326   90.3603   12.1100 C.ar    1  UNL1        0.0046
     35 C          63.4210   90.5271   13.3751 C.ar    1  UNL1        0.0002
     36 C          64.0153   89.3278   14.0522 C.ar    1  UNL1        0.0000
     37 C          63.8211   87.9616   13.4641 C.ar    1  UNL1        0.0002
     38 C          63.0327   87.7947   12.1990 C.ar    1  UNL1        0.0046
     39 C          59.2810   86.9764    7.8017 C.3     1  UNL1        0.4528
     40 F          58.3633   86.0530    7.0566 F       1  UNL1       -0.1631
     41 F          58.0983   87.7649    8.2810 F       1  UNL1       -0.1631
     42 F          60.4635   86.1878    7.3224 F       1  UNL1       -0.1631
@<TRIPOS>UNITY_ATOM_ATTR
22 1
charge -1
@<TRIPOS>BOND
     1    24    25    2
     2    25    26   am
     3    26     1    1
     4     1     2   ar
     5     2     3   ar
     6     3     4   ar
     7     4     7    1
     8     7     8    1
     9     8     9    1
    10     9    10    1
    11    10    11   am
    12    11    12    2
    13    15    11    1
    14    15    16    1
    15    16    17    1
    16    17    18    1
    17    18    21    1
    18    21    22   ar
    19    21    23   ar
    20    18    19    1
    21    19    20    1
    22    10    13    1
    23    13    14    1
    24     4     5   ar
    25     5     6   ar
    26    25    28    1
    27    28    29   ar
    28    29    30   ar
    29    30    33    1
    30    33    34   ar
    31    34    35   ar
    32    35    36   ar
    33    36    37   ar
    34    37    38   ar
    35    30    31   ar
    36    31    32   ar
    37    32    39    1
    38    39    40    1
    39    39    41    1
    40    39    42    1
    41     6     1   ar
    42    32    28   ar
    43    14     7    1
    44    38    33   ar
    45    20    15    1
    46    26    27    1
@<TRIPOS>MOLECULE
*****
 42 46 0 0 0
SMALL
GASTEIGER

@<TRIPOS>ATOM
      1 C          59.2777   91.4503    4.4964 C.ar    1  UNL1        0.0506
      2 C          60.7530   91.2889    4.7141 C.ar    1  UNL1        0.0144
      3 C          61.2567   90.5344    5.9086 C.ar    1  UNL1       -0.0030
      4 C          60.2852   89.9412    6.8854 C.ar    1  UNL1       -0.0223
      5 C          58.8099   90.1026    6.6678 C.ar    1  UNL1       -0.0030
      6 C          58.3061   90.8571    5.4733 C.ar    1  UNL1        0.0144
      7 C          60.7890   89.1866    8.0800 C.3     1  UNL1        0.0257
      8 C          60.9481   87.6966    8.0134 C.3     1  UNL1        0.0259
      9 C          61.4520   86.9420    9.2080 C.3     1  UNL1        0.0937
     10 N          61.7966   87.6776   10.4690 N.am    1  UNL1       -0.2795
     11 C          62.3004   86.9231   11.6635 C.2     1  UNL1        0.2251
     12 O          62.6450   87.6586   12.9246 O.2     1  UNL1       -0.2749
     13 C          61.6374   89.1677   10.5355 C.3     1  UNL1        0.0937
     14 C          61.1336   89.9222    9.3410 C.3     1  UNL1        0.0259
     15 C          62.4596   85.4331   11.5970 C.3     1  UNL1        0.0767
     16 C          62.8330   84.7758   10.3014 C.3     1  UNL1        0.0094
     17 C          62.9921   83.2857   10.2349 C.3     1  UNL1        0.0060
     18 C          62.7778   82.4530   11.4640 C.3     1  UNL1        0.0366
     19 C          62.4044   83.1102   12.7595 C.3     1  UNL1        0.0060
     20 C          62.2453   84.6003   12.8261 C.3     1  UNL1        0.0094
     21 C          62.9370   80.9629   11.3974 C.2     1  UNL1        0.0500
     22 O          63.2073   80.2955   10.0815 O.co2   1  UNL1       -0.5492
     23 O          62.8259   80.1403   12.6468 O.co2   1  UNL1       -0.5492
     24 O          61.2204   92.7198    2.5953 O.2     1  UNL1       -0.2681
     25 C          59.7452   92.8396    2.3513 C.2     1  UNL1        0.2703
     26 N          58.7739   92.2049    3.3019 N.am    1  UNL1       -0.2791
     27 H          57.8057   92.2835    3.1418 H       1  UNL1        0.1552
     28 C          59.2414   93.5942    1.1568 C.ar    1  UNL1        0.1763
     29 N          58.3121   93.0628    0.1060 N.ar    1  UNL1       -0.2037
     30 C          58.0748   94.1528   -0.8969 C.ar    1  UNL1        0.2298
     31 O          58.8574   95.3577   -0.4659 O.2     1  UNL1       -0.4304
     32 C          59.5784   95.0124    0.8034 C.ar    1  UNL1        0.2404
     33 C          57.2072   94.0550   -2.1166 C.ar    1  UNL1        0.0536
     34 C          56.2103   95.1350   -2.4165 C.ar    1  UNL1        0.0046
     35 C          55.3427   95.0372   -3.6362 C.ar    1  UNL1        0.0002
     36 C          55.4720   93.8594   -4.5560 C.ar    1  UNL1        0.0000
     37 C          56.4689   92.7794   -4.2561 C.ar    1  UNL1        0.0002
     38 C          57.3364   92.8772   -3.0364 C.ar    1  UNL1        0.0046
     39 C          60.4784   95.9251    1.5824 C.3     1  UNL1        0.4528
     40 F          61.3783   96.8379    2.3615 F       1  UNL1       -0.1631
     41 F          59.2786   96.5895    2.1901 F       1  UNL1       -0.1631
     42 F          61.6782   95.2608    0.9748 F       1  UNL1       -0.1631
@<TRIPOS>UNITY_ATOM_ATTR
22 1
charge -1
@<TRIPOS>BOND
     1    24    25    2
     2    25    26   am
     3    26     1    1
     4     1     2   ar
     5     2     3   ar
     6     3     4   ar
     7     4     7    1
     8     7     8    1
     9     8     9    1
    10     9    10    1
    11    10    11   am
    12    11    12    2
    13    15    11    1
    14    15    16    1
    15    16    17    1
    16    17    18    1
    17    18    21    1
    18    21    22   ar
    19    21    23   ar
    20    18    19    1
    21    19    20    1
    22    10    13    1
    23    13    14    1
    24     4     5   ar
    25     5     6   ar
    26    25    28    1
    27    28    29   ar
    28    29    30   ar
    29    30    33    1
    30    33    34   ar
    31    34    35   ar
    32    35    36   ar
    33    36    37   ar
    34    37    38   ar
    35    30    31   ar
    36    31    32   ar
    37    32    39    1
    38    39    40    1
    39    39    41    1
    40    39    42    1
    41     6     1   ar
    42    32    28   ar
    43    14     7    1
    44    38    33   ar
    45    20    15    1
    46    26    27    1
@<TRIPOS>MOLECULE
*****
 42 46 0 0 0
SMALL
GASTEIGER

@<TRIPOS>ATOM
      1 C          58.9842   92.0748    3.4249 C.ar    1  UNL1        0.0506
      2 C          60.4324   91.7929    3.6954 C.ar    1  UNL1        0.0144
      3 C          60.8322   91.0417    4.9305 C.ar    1  UNL1       -0.0030
      4 C          59.7839   90.5722    5.8952 C.ar    1  UNL1       -0.0223
      5 C          58.3357   90.8541    5.6248 C.ar    1  UNL1       -0.0030
      6 C          57.9358   91.6054    4.3896 C.ar    1  UNL1        0.0144
      7 C          60.1838   89.8209    7.1304 C.3     1  UNL1        0.0257
      8 C          60.9625   90.5126    8.2098 C.3     1  UNL1        0.0259
      9 C          61.3625   89.7613    9.4450 C.3     1  UNL1        0.0937
     10 N          60.9837   88.3183    9.6007 N.am    1  UNL1       -0.2795
     11 C          61.3836   87.5670   10.8358 C.2     1  UNL1        0.2251
     12 O          61.0048   86.1239   10.9915 O.2     1  UNL1       -0.2749
     13 C          60.2050   87.6266    8.5212 C.3     1  UNL1        0.0937
     14 C          59.8051   88.3779    7.2861 C.3     1  UNL1        0.0259
     15 C          62.1622   88.2587   11.9153 C.3     1  UNL1        0.0767
     16 C          63.2286   87.5158   12.6643 C.3     1  UNL1        0.0094
     17 C          64.0073   88.2076   13.7438 C.3     1  UNL1        0.0060
     18 C          63.7196   89.6421   14.0742 C.3     1  UNL1        0.0366
     19 C          62.6532   90.3850   13.3251 C.3     1  UNL1        0.0060
     20 C          61.8746   89.6933   12.2457 C.3     1  UNL1        0.0094
     21 C          64.4983   90.3338   15.1536 C.2     1  UNL1        0.0500
     22 O          63.8638   90.5919   16.4881 O.co2   1  UNL1       -0.5492
     23 O          65.9114   90.7675   14.8985 O.co2   1  UNL1       -0.5492
     24 O          60.7483   92.0206    0.9990 O.2     1  UNL1       -0.2681
     25 C          59.4663   92.7990    0.9768 C.2     1  UNL1        0.2703
     26 N          58.5842   92.8261    2.1897 N.am    1  UNL1       -0.2791
     27 H          57.7428   93.3370    2.1751 H       1  UNL1        0.1552
     28 C          59.0664   93.5503   -0.2584 C.ar    1  UNL1        0.1763
     29 N          57.6701   93.7001   -0.7858 N.ar    1  UNL1       -0.2037
     30 C          57.7332   94.5261   -2.0364 C.ar    1  UNL1        0.2298
     31 O          59.1685   94.8867   -2.2818 O.2     1  UNL1       -0.4304
     32 C          59.9923   94.2837   -1.1829 C.ar    1  UNL1        0.2404
     33 C          56.5661   94.9219   -2.8914 C.ar    1  UNL1        0.0536
     34 C          56.5676   94.6025   -4.3571 C.ar    1  UNL1        0.0046
     35 C          55.4005   94.9983   -5.2121 C.ar    1  UNL1        0.0002
     36 C          54.2319   95.7135   -4.6015 C.ar    1  UNL1        0.0000
     37 C          54.2304   96.0329   -3.1359 C.ar    1  UNL1        0.0002
     38 C          55.3975   95.6371   -2.2809 C.ar    1  UNL1        0.0046
     39 C          61.4808   94.3945   -1.0345 C.3     1  UNL1        0.4528
     40 F          62.9694   94.5052   -0.8862 F       1  UNL1       -0.1631
     41 F          61.6550   93.1482   -1.8510 F       1  UNL1       -0.1631
     42 F          61.3068   95.6407   -0.2180 F       1  UNL1       -0.1631
@<TRIPOS>UNITY_ATOM_ATTR
22 1
charge -1
@<TRIPOS>BOND
     1    24    25    2
     2    25    26   am
     3    26     1    1
     4     1     2   ar
     5     2     3   ar
     6     3     4   ar
     7     4     7    1
     8     7     8    1
     9     8     9    1
    10     9    10    1
    11    10    11   am
    12    11    12    2
    13    15    11    1
    14    15    16    1
    15    16    17    1
    16    17    18    1
    17    18    21    1
    18    21    22   ar
    19    21    23   ar
    20    18    19    1
    21    19    20    1
    22    10    13    1
    23    13    14    1
    24     4     5   ar
    25     5     6   ar
    26    25    28    1
    27    28    29   ar
    28    29    30   ar
    29    30    33    1
    30    33    34   ar
    31    34    35   ar
    32    35    36   ar
    33    36    37   ar
    34    37    38   ar
    35    30    31   ar
    36    31    32   ar
    37    32    39    1
    38    39    40    1
    39    39    41    1
    40    39    42    1
    41     6     1   ar
    42    32    28   ar
    43    14     7    1
    44    38    33   ar
    45    20    15    1
    46    26    27    1
@<TRIPOS>MOLECULE
*****
 42 46 0 0 0
SMALL
GASTEIGER

@<TRIPOS>ATOM
      1 C          58.9944   91.9060    3.7377 C.ar    1  UNL1        0.0506
      2 C          57.8965   91.4521    4.6535 C.ar    1  UNL1        0.0144
      3 C          58.2292   90.7010    5.9085 C.ar    1  UNL1       -0.0030
      4 C          59.6598   90.4038    6.2478 C.ar    1  UNL1       -0.0223
      5 C          60.7577   90.8577    5.3320 C.ar    1  UNL1       -0.0030
      6 C          60.4250   91.6088    4.0770 C.ar    1  UNL1        0.0144
      7 C          59.9925   89.6527    7.5029 C.3     1  UNL1        0.0257
      8 C          60.7226   88.3449    7.4231 C.3     1  UNL1        0.0259
      9 C          61.0553   87.5938    8.6782 C.3     1  UNL1        0.0937
     10 N          60.6578   88.1506   10.0131 N.am    1  UNL1       -0.2795
     11 C          60.9904   87.3996   11.2682 C.2     1  UNL1        0.2251
     12 O          60.5929   87.9564   12.6031 O.2     1  UNL1       -0.2749
     13 C          59.9276   89.4585   10.0929 C.3     1  UNL1        0.0937
     14 C          59.5950   90.2095    8.8378 C.3     1  UNL1        0.0259
     15 C          61.7205   86.0917   11.1884 C.3     1  UNL1        0.0767
     16 C          61.9736   85.2967   12.4349 C.3     1  UNL1        0.0094
     17 C          62.7038   83.9888   12.3550 C.3     1  UNL1        0.0060
     18 C          63.1808   83.4759   11.0287 C.3     1  UNL1        0.0366
     19 C          62.9277   84.2709    9.7821 C.3     1  UNL1        0.0060
     20 C          62.1976   85.5788    9.8619 C.3     1  UNL1        0.0094
     21 C          63.9109   82.1681   10.9488 C.2     1  UNL1        0.0500
     22 O          63.3630   81.0534   10.1077 O.co2   1  UNL1       -0.5492
     23 O          65.1888   81.9749   11.7101 O.co2   1  UNL1       -0.5492
     24 O          61.1285   92.4372    1.6972 O.2     1  UNL1       -0.2681
     25 C          59.7287   92.9226    1.4624 C.2     1  UNL1        0.2703
     26 N          58.6617   92.6571    2.4826 N.am    1  UNL1       -0.2791
     27 H          57.7431   92.9757    2.3285 H       1  UNL1        0.1552
     28 C          59.3961   93.6738    0.2072 C.ar    1  UNL1        0.1763
     29 N          58.0367   93.7908   -0.4161 N.ar    1  UNL1       -0.2037
     30 C          58.1648   94.6290   -1.6535 C.ar    1  UNL1        0.2298
     31 O          59.6034   95.0300   -1.7948 O.2     1  UNL1       -0.4304
     32 C          60.3643   94.4396   -0.6448 C.ar    1  UNL1        0.2404
     33 C          57.0502   95.0010   -2.5857 C.ar    1  UNL1        0.0536
     34 C          57.3269   95.1903   -4.0478 C.ar    1  UNL1        0.0046
     35 C          56.2123   95.5623   -4.9801 C.ar    1  UNL1        0.0002
     36 C          54.8209   95.7448   -4.4503 C.ar    1  UNL1        0.0000
     37 C          54.5441   95.5554   -2.9883 C.ar    1  UNL1        0.0002
     38 C          55.6588   95.1835   -2.0560 C.ar    1  UNL1        0.0046
     39 C          61.8351   94.5889   -0.3913 C.3     1  UNL1        0.4528
     40 F          63.3060   94.7380   -0.1379 F       1  UNL1       -0.1631
     41 F          62.1013   93.3633   -1.2143 F       1  UNL1       -0.1631
     42 F          61.5691   95.8144    0.4316 F       1  UNL1       -0.1631
@<TRIPOS>UNITY_ATOM_ATTR
22 1
charge -1
@<TRIPOS>BOND
     1    24    25    2
     2    25    26   am
     3    26     1    1
     4     1     2   ar
     5     2     3   ar
     6     3     4   ar
     7     4     7    1
     8     7     8    1
     9     8     9    1
    10     9    10    1
    11    10    11   am
    12    11    12    2
    13    15    11    1
    14    15    16    1
    15    16    17    1
    16    17    18    1
    17    18    21    1
    18    21    22   ar
    19    21    23   ar
    20    18    19    1
    21    19    20    1
    22    10    13    1
    23    13    14    1
    24     4     5   ar
    25     5     6   ar
    26    25    28    1
    27    28    29   ar
    28    29    30   ar
    29    30    33    1
    30    33    34   ar
    31    34    35   ar
    32    35    36   ar
    33    36    37   ar
    34    37    38   ar
    35    30    31   ar
    36    31    32   ar
    37    32    39    1
    38    39    40    1
    39    39    41    1
    40    39    42    1
    41     6     1   ar
    42    32    28   ar
    43    14     7    1
    44    38    33   ar
    45    20    15    1
    46    26    27    1
@<TRIPOS>MOLECULE
*****
 42 46 0 0 0
SMALL
GASTEIGER

@<TRIPOS>ATOM
      1 C          60.8917   90.8666    5.3455 C.ar    1  UNL1        0.0506
      2 C          59.4897   91.3812    5.2067 C.ar    1  UNL1        0.0144
      3 C          59.0930   92.1572    3.9859 C.ar    1  UNL1       -0.0030
      4 C          60.0984   92.4186    2.9039 C.ar    1  UNL1       -0.0223
      5 C          61.5005   91.9041    3.0427 C.ar    1  UNL1       -0.0030
      6 C          61.8972   91.1281    4.2635 C.ar    1  UNL1        0.0144
      7 C          59.7017   93.1947    1.6831 C.3     1  UNL1        0.0257
      8 C          58.2591   93.2721    1.2795 C.3     1  UNL1        0.0259
      9 C          57.8624   94.0482    0.0587 C.3     1  UNL1        0.0937
     10 N          58.9083   94.7468   -0.7586 N.am    1  UNL1       -0.2795
     11 C          58.5116   95.5229   -1.9793 C.2     1  UNL1        0.2251
     12 O          59.5576   96.2216   -2.7966 O.2     1  UNL1       -0.2749
     13 C          60.3510   94.6695   -0.3549 C.3     1  UNL1        0.0937
     14 C          60.7476   93.8934    0.8658 C.3     1  UNL1        0.0259
     15 C          57.0691   95.6003   -2.3829 C.3     1  UNL1        0.0767
     16 C          56.1317   96.5100   -1.6455 C.3     1  UNL1        0.0094
     17 C          54.6891   96.5874   -2.0491 C.3     1  UNL1        0.0060
     18 C          54.1838   95.7550   -3.1900 C.3     1  UNL1        0.0366
     19 C          55.1211   94.8452   -3.9274 C.3     1  UNL1        0.0060
     20 C          56.5637   94.7678   -3.5239 C.3     1  UNL1        0.0094
     21 C          52.7412   95.8323   -3.5936 C.2     1  UNL1        0.0500
     22 O          52.3672   96.3778   -4.9400 O.co2   1  UNL1       -0.5492
     23 O          51.6725   95.3642   -2.6508 O.co2   1  UNL1       -0.5492
     24 O          58.8802   89.1311    6.7391 O.2     1  UNL1       -0.2681
     25 C          60.2827   89.2228    7.2631 C.2     1  UNL1        0.2703
     26 N          61.2885   90.0905    6.5664 N.am    1  UNL1       -0.2791
     27 H          62.2090   90.1507    6.9103 H       1  UNL1        0.1552
     28 C          60.6795   88.4467    8.4840 C.ar    1  UNL1        0.1763
     29 N          61.4088   87.1360    8.4970 N.ar    1  UNL1       -0.2037
     30 C          61.5966   86.7243    9.9272 C.ar    1  UNL1        0.2298
     31 O          60.9833   87.7806   10.7979 O.2     1  UNL1       -0.4304
     32 C          60.4165   88.8451    9.9060 C.ar    1  UNL1        0.2404
     33 C          62.2780   85.4756   10.4030 C.ar    1  UNL1        0.0536
     34 C          63.1039   84.6625    9.4507 C.ar    1  UNL1        0.0046
     35 C          63.7853   83.4138    9.9265 C.ar    1  UNL1        0.0002
     36 C          63.6408   82.9782   11.3546 C.ar    1  UNL1        0.0000
     37 C          62.8150   83.7914   12.3068 C.ar    1  UNL1        0.0002
     38 C          62.1336   85.0401   11.8310 C.ar    1  UNL1        0.0046
     39 C          59.7107   90.0895   10.3568 C.3     1  UNL1        0.4528
     40 F          59.0049   91.3339   10.8076 F       1  UNL1       -0.1631
     41 F          60.7353   90.9267    9.6500 F       1  UNL1       -0.1631
     42 F          58.6861   89.2524   11.0636 F       1  UNL1       -0.1631
@<TRIPOS>UNITY_ATOM_ATTR
22 1
charge -1
@<TRIPOS>BOND
     1    24    25    2
     2    25    26   am
     3    26     1    1
     4     1     2   ar
     5     2     3   ar
     6     3     4   ar
     7     4     7    1
     8     7     8    1
     9     8     9    1
    10     9    10    1
    11    10    11   am
    12    11    12    2
    13    15    11    1
    14    15    16    1
    15    16    17    1
    16    17    18    1
    17    18    21    1
    18    21    22   ar
    19    21    23   ar
    20    18    19    1
    21    19    20    1
    22    10    13    1
    23    13    14    1
    24     4     5   ar
    25     5     6   ar
    26    25    28    1
    27    28    29   ar
    28    29    30   ar
    29    30    33    1
    30    33    34   ar
    31    34    35   ar
    32    35    36   ar
    33    36    37   ar
    34    37    38   ar
    35    30    31   ar
    36    31    32   ar
    37    32    39    1
    38    39    40    1
    39    39    41    1
    40    39    42    1
    41     6     1   ar
    42    32    28   ar
    43    14     7    1
    44    38    33   ar
    45    20    15    1
    46    26    27    1
