@<TRIPOS>MOLECULE
*****
 32 35 0 0 0
SMALL
GASTEIGER

@<TRIPOS>ATOM
      1 C          63.7826   87.2778   15.2263 C.2     1  UNL1        0.2534
      2 O          63.4169   87.6960   16.6196 O.2     1  UNL1       -0.2695
      3 N          64.2712   88.2977   14.2410 N.am    1  UNL1       -0.2965
      4 H          64.5112   88.0232   13.3265 H       1  UNL1        0.1501
      5 C          62.7961   80.3154   11.7370 C.3     1  UNL1        0.0537
      6 C          63.0801   81.3481   12.7872 C.ar    1  UNL1        0.0771
      7 N          63.4353   80.9224   14.1810 N.ar    1  UNL1       -0.1522
      8 N          63.7193   81.9551   15.2311 N.ar    1  UNL1       -0.1416
      9 C          63.6482   83.4135   14.8876 C.ar    1  UNL1        0.1333
     10 S          63.8748   84.6498   15.7062 S.2     1  UNL1       -0.0604
     11 C          63.6597   85.8395   14.8184 C.ar    1  UNL1        0.0971
     12 C          63.3001   85.3385   13.4510 C.ar    1  UNL1        0.0538
     13 N          63.0003   86.1878   12.2515 N.pl3   1  UNL1       -0.3564
     14 C          63.2930   83.8391   13.4938 C.ar    1  UNL1        0.0363
     15 C          63.0089   82.8064   12.4436 C.ar    1  UNL1       -0.0033
     16 C          62.6537   83.2321   11.0498 C.3     1  UNL1        0.0324
     17 H          63.0307   87.1692   12.3232 H       1  UNL1        0.1424
     18 H          62.7730   85.7638   11.3925 H       1  UNL1        0.1424
     19 C          64.3941   89.7359   14.6490 C.3     1  UNL1        0.1166
     20 C          64.8994   90.7530   13.6690 C.ar    1  UNL1       -0.0026
     21 C          66.1496   91.5260   13.9679 C.ar    1  UNL1       -0.0026
     22 C          66.6548   92.5430   12.9880 C.ar    1  UNL1       -0.0002
     23 C          65.9098   92.7871   11.7091 C.ar    1  UNL1        0.0015
     24 C          64.6596   92.0141   11.4102 C.ar    1  UNL1       -0.0002
     25 C          64.1544   90.9970   12.3902 C.ar    1  UNL1       -0.0026
     26 C          66.4151   93.8042   10.7292 C.ar    1  UNL1        0.0193
     27 C          67.3530   93.3896    9.6344 C.ar    1  UNL1        0.0055
     28 C          67.8582   94.4067    8.6544 C.ar    1  UNL1        0.0497
     29 C          67.4256   95.8383    8.7693 C.ar    1  UNL1        0.2223
     30 F          67.9309   96.8554    7.7894 F       1  UNL1       -0.1832
     31 N          66.4877   96.2529    9.8641 N.ar    1  UNL1       -0.2165
     32 C          65.9825   95.2358   10.8440 C.ar    1  UNL1        0.1012
@<TRIPOS>BOND
     1     5     6    1
     2     6     7   ar
     3     7     8   ar
     4     8     9   ar
     5     9    10   ar
     6    10    11   ar
     7    11     1    1
     8     1     2    2
     9     1     3   am
    10     3    19    1
    11    19    20    1
    12    20    21   ar
    13    21    22   ar
    14    22    23   ar
    15    23    26    1
    16    26    27   ar
    17    27    28   ar
    18    28    29   ar
    19    29    30    1
    20    29    31   ar
    21    31    32   ar
    22    23    24   ar
    23    24    25   ar
    24    11    12   ar
    25    12    13    1
    26    12    14   ar
    27    14    15   ar
    28    15    16    1
    29    15     6   ar
    30    14     9   ar
    31    25    20   ar
    32    32    26   ar
    33     3     4    1
    34    13    17    1
    35    13    18    1
@<TRIPOS>MOLECULE
*****
 32 35 0 0 0
SMALL
GASTEIGER

@<TRIPOS>ATOM
      1 C          63.6689   89.2156   15.2289 C.2     1  UNL1        0.2534
      2 O          62.3957   89.3592   16.0089 O.2     1  UNL1       -0.2695
      3 N          64.3071   87.8667   15.0768 N.am    1  UNL1       -0.2965
      4 H          65.1427   87.7724   14.5648 H       1  UNL1        0.1501
      5 C          66.4069   94.9844   10.6631 C.3     1  UNL1        0.0537
      6 C          66.1189   94.1519   11.8771 C.ar    1  UNL1        0.0771
      7 N          66.6425   94.5744   13.2177 N.ar    1  UNL1       -0.1522
      8 N          66.3545   93.7418   14.4318 N.ar    1  UNL1       -0.1416
      9 C          65.5428   92.4868   14.3052 C.ar    1  UNL1        0.1333
     10 S          65.1007   91.4711   15.3165 S.2     1  UNL1       -0.0604
     11 C          64.3038   90.4208   14.6010 C.ar    1  UNL1        0.0971
     12 C          64.2534   90.7875   13.1474 C.ar    1  UNL1        0.0538
     13 N          63.5592   90.0132   12.0664 N.pl3   1  UNL1       -0.3564
     14 C          65.0191   92.0644   12.9646 C.ar    1  UNL1        0.0363
     15 C          65.3072   92.8969   11.7505 C.ar    1  UNL1       -0.0033
     16 C          64.7835   92.4744   10.4099 C.3     1  UNL1        0.0324
     17 H          63.0801   89.1818   12.2865 H       1  UNL1        0.1424
     18 H          63.5826   90.3365   11.1367 H       1  UNL1        0.1424
     19 C          63.6721   86.6615   15.7046 C.3     1  UNL1        0.1166
     20 C          63.5044   85.4014   14.9082 C.ar    1  UNL1       -0.0026
     21 C          62.9849   84.1596   15.5698 C.ar    1  UNL1       -0.0026
     22 C          62.8172   82.8996   14.7734 C.ar    1  UNL1       -0.0002
     23 C          63.1692   82.8815   13.3154 C.ar    1  UNL1        0.0015
     24 C          63.6887   84.1233   12.6538 C.ar    1  UNL1       -0.0002
     25 C          63.8564   85.3833   13.4502 C.ar    1  UNL1       -0.0026
     26 C          63.0015   81.6214   12.5190 C.ar    1  UNL1        0.0193
     27 C          63.2205   81.6373   11.0352 C.ar    1  UNL1        0.0055
     28 C          63.0528   80.3772   10.2387 C.ar    1  UNL1        0.0497
     29 C          62.6662   79.1013   10.9262 C.ar    1  UNL1        0.2223
     30 F          62.4985   77.8413   10.1299 F       1  UNL1       -0.1832
     31 N          62.4472   79.0855   12.4101 N.ar    1  UNL1       -0.2165
     32 C          62.6148   80.3455   13.2065 C.ar    1  UNL1        0.1012
@<TRIPOS>BOND
     1     5     6    1
     2     6     7   ar
     3     7     8   ar
     4     8     9   ar
     5     9    10   ar
     6    10    11   ar
     7    11     1    1
     8     1     2    2
     9     1     3   am
    10     3    19    1
    11    19    20    1
    12    20    21   ar
    13    21    22   ar
    14    22    23   ar
    15    23    26    1
    16    26    27   ar
    17    27    28   ar
    18    28    29   ar
    19    29    30    1
    20    29    31   ar
    21    31    32   ar
    22    23    24   ar
    23    24    25   ar
    24    11    12   ar
    25    12    13    1
    26    12    14   ar
    27    14    15   ar
    28    15    16    1
    29    15     6   ar
    30    14     9   ar
    31    25    20   ar
    32    32    26   ar
    33     3     4    1
    34    13    17    1
    35    13    18    1
@<TRIPOS>MOLECULE
*****
 32 35 0 0 0
SMALL
GASTEIGER

@<TRIPOS>ATOM
      1 C          63.0453   85.5251   15.1830 C.2     1  UNL1        0.2534
      2 O          62.3342   85.7534   16.4839 O.2     1  UNL1       -0.2695
      3 N          63.8549   86.6274   14.5672 N.am    1  UNL1       -0.2965
      4 H          64.3216   86.4775   13.7134 H       1  UNL1        0.1501
      5 C          62.8399   79.3437   10.3486 C.3     1  UNL1        0.0537
      6 C          62.7746   80.1688   11.5996 C.ar    1  UNL1        0.0771
      7 N          62.4730   79.5140   12.9150 N.ar    1  UNL1       -0.1522
      8 N          62.4077   80.3391   14.1659 N.ar    1  UNL1       -0.1416
      9 C          62.6440   81.8190   14.1015 C.ar    1  UNL1        0.1333
     10 S          62.6446   82.8823   15.1595 S.2     1  UNL1       -0.0604
     11 C          62.9466   84.1942   14.4979 C.ar    1  UNL1        0.0971
     12 C          63.1325   83.9418   13.0311 C.ar    1  UNL1        0.0538
     13 N          63.4498   84.9757   11.9917 N.pl3   1  UNL1       -0.3564
     14 C          62.9455   82.4737   12.7861 C.ar    1  UNL1        0.0363
     15 C          63.0108   81.6486   11.5351 C.ar    1  UNL1       -0.0033
     16 C          63.3123   82.3034   10.2197 C.3     1  UNL1        0.0324
     17 H          63.5543   85.9194   12.2520 H       1  UNL1        0.1424
     18 H          63.5535   84.7106   11.0493 H       1  UNL1        0.1424
     19 C          63.9536   87.9581   15.2523 C.3     1  UNL1        0.1166
     20 C          64.3601   89.1742   14.4738 C.ar    1  UNL1       -0.0026
     21 C          65.4297   90.0818   15.0050 C.ar    1  UNL1       -0.0026
     22 C          65.8361   91.2978   14.2265 C.ar    1  UNL1       -0.0002
     23 C          65.1729   91.6062   12.9169 C.ar    1  UNL1        0.0015
     24 C          64.1033   90.6986   12.3857 C.ar    1  UNL1       -0.0002
     25 C          63.6969   89.4826   13.1642 C.ar    1  UNL1       -0.0026
     26 C          65.5794   92.8223   12.1384 C.ar    1  UNL1        0.0193
     27 C          65.4027   92.8532   10.6492 C.ar    1  UNL1        0.0055
     28 C          65.8092   94.0692    9.8707 C.ar    1  UNL1        0.0497
     29 C          66.3924   95.2544   10.5815 C.ar    1  UNL1        0.2223
     30 F          66.7989   96.4705    9.8031 F       1  UNL1       -0.1832
     31 N          66.5691   95.2235   12.0708 N.ar    1  UNL1       -0.2165
     32 C          66.1626   94.0075   12.8492 C.ar    1  UNL1        0.1012
@<TRIPOS>BOND
     1     5     6    1
     2     6     7   ar
     3     7     8   ar
     4     8     9   ar
     5     9    10   ar
     6    10    11   ar
     7    11     1    1
     8     1     2    2
     9     1     3   am
    10     3    19    1
    11    19    20    1
    12    20    21   ar
    13    21    22   ar
    14    22    23   ar
    15    23    26    1
    16    26    27   ar
    17    27    28   ar
    18    28    29   ar
    19    29    30    1
    20    29    31   ar
    21    31    32   ar
    22    23    24   ar
    23    24    25   ar
    24    11    12   ar
    25    12    13    1
    26    12    14   ar
    27    14    15   ar
    28    15    16    1
    29    15     6   ar
    30    14     9   ar
    31    25    20   ar
    32    32    26   ar
    33     3     4    1
    34    13    17    1
    35    13    18    1
@<TRIPOS>MOLECULE
*****
 32 35 0 0 0
SMALL
GASTEIGER

@<TRIPOS>ATOM
      1 C          59.8058   88.4037    8.0533 C.2     1  UNL1        0.2534
      2 O          58.8425   87.3919    7.5072 O.2     1  UNL1       -0.2695
      3 N          59.9292   89.7495    7.4025 N.am    1  UNL1       -0.2965
      4 H          60.5615   90.4135    7.7609 H       1  UNL1        0.1501
      5 C          64.4815   88.1357   14.3533 C.3     1  UNL1        0.0537
      6 C          63.5735   87.7010   13.2413 C.ar    1  UNL1        0.0771
      7 N          63.2124   86.2530   13.0906 N.ar    1  UNL1       -0.1522
      8 N          62.3045   85.8182   11.9785 N.ar    1  UNL1       -0.1416
      9 C          61.7576   86.8315   11.0172 C.ar    1  UNL1        0.1333
     10 S          60.8473   86.7018    9.8321 S.2     1  UNL1       -0.0604
     11 C          60.6457   88.0697    9.2504 C.ar    1  UNL1        0.0971
     12 C          61.4316   89.0448   10.0760 C.ar    1  UNL1        0.0538
     13 N          61.5155   90.5252    9.8494 N.pl3   1  UNL1       -0.3564
     14 C          62.1188   88.2796   11.1679 C.ar    1  UNL1        0.0363
     15 C          63.0267   88.7143   12.2800 C.ar    1  UNL1       -0.0033
     16 C          63.3878   90.1624   12.4307 C.3     1  UNL1        0.0324
     17 H          61.0256   90.9373    9.1015 H       1  UNL1        0.1424
     18 H          62.0605   91.0848   10.4487 H       1  UNL1        0.1424
     19 C          59.0893   90.0834    6.2054 C.3     1  UNL1        0.1166
     20 C          59.6509   90.9421    5.1111 C.ar    1  UNL1       -0.0026
     21 C          58.7518   91.8712    4.3507 C.ar    1  UNL1       -0.0026
     22 C          59.3133   92.7298    3.2564 C.ar    1  UNL1       -0.0002
     23 C          60.7740   92.6592    2.9226 C.ar    1  UNL1        0.0015
     24 C          61.6731   91.7301    3.6831 C.ar    1  UNL1       -0.0002
     25 C          61.1115   90.8715    4.7773 C.ar    1  UNL1       -0.0026
     26 C          61.3356   93.5179    1.8283 C.ar    1  UNL1        0.0193
     27 C          62.6700   93.1893    1.2272 C.ar    1  UNL1        0.0055
     28 C          63.2315   94.0480    0.1329 C.ar    1  UNL1        0.0497
     29 C          62.4587   95.2352   -0.3602 C.ar    1  UNL1        0.2223
     30 F          63.0202   96.0938   -1.4545 F       1  UNL1       -0.1832
     31 N          61.1242   95.5637    0.2410 N.ar    1  UNL1       -0.2165
     32 C          60.5627   94.7051    1.3352 C.ar    1  UNL1        0.1012
@<TRIPOS>BOND
     1     5     6    1
     2     6     7   ar
     3     7     8   ar
     4     8     9   ar
     5     9    10   ar
     6    10    11   ar
     7    11     1    1
     8     1     2    2
     9     1     3   am
    10     3    19    1
    11    19    20    1
    12    20    21   ar
    13    21    22   ar
    14    22    23   ar
    15    23    26    1
    16    26    27   ar
    17    27    28   ar
    18    28    29   ar
    19    29    30    1
    20    29    31   ar
    21    31    32   ar
    22    23    24   ar
    23    24    25   ar
    24    11    12   ar
    25    12    13    1
    26    12    14   ar
    27    14    15   ar
    28    15    16    1
    29    15     6   ar
    30    14     9   ar
    31    25    20   ar
    32    32    26   ar
    33     3     4    1
    34    13    17    1
    35    13    18    1
@<TRIPOS>MOLECULE
*****
 32 35 0 0 0
SMALL
GASTEIGER

@<TRIPOS>ATOM
      1 C          62.7271   87.5100   12.6270 C.2     1  UNL1        0.2534
      2 O          61.7013   88.3843   11.9687 O.2     1  UNL1       -0.2695
      3 N          63.6629   88.0889   13.6464 N.am    1  UNL1       -0.2965
      4 H          64.3362   87.5151   14.0785 H       1  UNL1        0.1501
      5 C          62.8463   79.6733   12.1847 C.3     1  UNL1        0.0537
      6 C          62.9398   81.1178   11.7913 C.ar    1  UNL1        0.0771
      7 N          63.2827   81.4898   10.3792 N.ar    1  UNL1       -0.1522
      8 N          63.3762   82.9343    9.9858 N.ar    1  UNL1       -0.1416
      9 C          63.1269   84.0067   11.0044 C.ar    1  UNL1        0.1333
     10 S          63.1473   85.5037   10.9114 S.2     1  UNL1       -0.0604
     11 C          62.8170   86.0568   12.2661 C.ar    1  UNL1        0.0971
     12 C          62.5925   84.9018   13.1963 C.ar    1  UNL1        0.0538
     13 N          62.2387   84.9969   14.6508 N.pl3   1  UNL1       -0.3564
     14 C          62.7840   83.6347   12.4165 C.ar    1  UNL1        0.0363
     15 C          62.6905   82.1902   12.8099 C.ar    1  UNL1       -0.0033
     16 C          62.3476   81.8182   14.2221 C.3     1  UNL1        0.0324
     17 H          62.1341   85.8790   15.0753 H       1  UNL1        0.1424
     18 H          62.1109   84.1773   15.1810 H       1  UNL1        0.1424
     19 C          63.5729   89.5420   14.0073 C.3     1  UNL1        0.1166
     20 C          64.2140   90.5744   13.1279 C.ar    1  UNL1       -0.0026
     21 C          65.4190   91.3264   13.6098 C.ar    1  UNL1       -0.0026
     22 C          66.0600   92.3587   12.7304 C.ar    1  UNL1       -0.0002
     23 C          65.4960   92.6390   11.3690 C.ar    1  UNL1        0.0015
     24 C          64.2910   91.8869   10.8871 C.ar    1  UNL1       -0.0002
     25 C          63.6500   90.8546   11.7665 C.ar    1  UNL1       -0.0026
     26 C          66.1371   93.6713   10.4896 C.ar    1  UNL1        0.0193
     27 C          67.3093   93.3010    9.6301 C.ar    1  UNL1        0.0055
     28 C          67.9504   94.3334    8.7507 C.ar    1  UNL1        0.0497
     29 C          67.4192   95.7360    8.7308 C.ar    1  UNL1        0.2223
     30 F          68.0602   96.7684    7.8514 F       1  UNL1       -0.1832
     31 N          66.2469   96.1063    9.5903 N.ar    1  UNL1       -0.2165
     32 C          65.6059   95.0740   10.4697 C.ar    1  UNL1        0.1012
@<TRIPOS>BOND
     1     5     6    1
     2     6     7   ar
     3     7     8   ar
     4     8     9   ar
     5     9    10   ar
     6    10    11   ar
     7    11     1    1
     8     1     2    2
     9     1     3   am
    10     3    19    1
    11    19    20    1
    12    20    21   ar
    13    21    22   ar
    14    22    23   ar
    15    23    26    1
    16    26    27   ar
    17    27    28   ar
    18    28    29   ar
    19    29    30    1
    20    29    31   ar
    21    31    32   ar
    22    23    24   ar
    23    24    25   ar
    24    11    12   ar
    25    12    13    1
    26    12    14   ar
    27    14    15   ar
    28    15    16    1
    29    15     6   ar
    30    14     9   ar
    31    25    20   ar
    32    32    26   ar
    33     3     4    1
    34    13    17    1
    35    13    18    1
@<TRIPOS>MOLECULE
*****
 32 35 0 0 0
SMALL
GASTEIGER

@<TRIPOS>ATOM
      1 C          59.8066   88.7992    7.8840 C.2     1  UNL1        0.2534
      2 O          58.6573   87.9288    7.4698 O.2     1  UNL1       -0.2695
      3 N          60.1197   90.0461    7.1112 N.am    1  UNL1       -0.2965
      4 H          60.8740   90.6173    7.3831 H       1  UNL1        0.1501
      5 C          63.9463   85.4152   13.6317 C.3     1  UNL1        0.0537
      6 C          63.2999   86.4664   12.7788 C.ar    1  UNL1        0.0771
      7 N          63.4554   87.9165   13.1292 N.ar    1  UNL1       -0.1522
      8 N          62.8090   88.9676   12.2763 N.ar    1  UNL1       -0.1416
      9 C          62.0072   88.5686   11.0731 C.ar    1  UNL1        0.1333
     10 S          61.2600   89.3747   10.0524 S.2     1  UNL1       -0.0604
     11 C          60.6428   88.4227    9.0711 C.ar    1  UNL1        0.0971
     12 C          61.0084   87.0282    9.4854 C.ar    1  UNL1        0.0538
     13 N          60.6022   85.7653    8.7854 N.pl3   1  UNL1       -0.3564
     14 C          61.8517   87.1184   10.7228 C.ar    1  UNL1        0.0363
     15 C          62.4981   86.0673   11.5756 C.ar    1  UNL1       -0.0033
     16 C          62.3425   84.6171   11.2252 C.3     1  UNL1        0.0324
     17 H          60.0442   85.8091    7.9755 H       1  UNL1        0.1424
     18 H          60.8936   84.8927    9.1359 H       1  UNL1        0.1424
     19 C          59.2836   90.4225    5.9242 C.3     1  UNL1        0.1166
     20 C          59.8881   91.2118    4.8009 C.ar    1  UNL1       -0.0026
     21 C          61.3421   91.0515    4.4692 C.ar    1  UNL1       -0.0026
     22 C          61.9465   91.8408    3.3460 C.ar    1  UNL1       -0.0002
     23 C          61.0969   92.7904    2.5545 C.ar    1  UNL1        0.0015
     24 C          59.6429   92.9508    2.8863 C.ar    1  UNL1       -0.0002
     25 C          59.0385   92.1615    4.0095 C.ar    1  UNL1       -0.0026
     26 C          61.7014   93.5798    1.4313 C.ar    1  UNL1        0.0193
     27 C          63.1923   93.6942    1.3125 C.ar    1  UNL1        0.0055
     28 C          63.7968   94.4836    0.1892 C.ar    1  UNL1        0.0497
     29 C          62.9104   95.1584   -0.8152 C.ar    1  UNL1        0.2223
     30 F          63.5148   95.9477   -1.9383 F       1  UNL1       -0.1832
     31 N          61.4194   95.0439   -0.6963 N.ar    1  UNL1       -0.2165
     32 C          60.8150   94.2546    0.4269 C.ar    1  UNL1        0.1012
@<TRIPOS>BOND
     1     5     6    1
     2     6     7   ar
     3     7     8   ar
     4     8     9   ar
     5     9    10   ar
     6    10    11   ar
     7    11     1    1
     8     1     2    2
     9     1     3   am
    10     3    19    1
    11    19    20    1
    12    20    21   ar
    13    21    22   ar
    14    22    23   ar
    15    23    26    1
    16    26    27   ar
    17    27    28   ar
    18    28    29   ar
    19    29    30    1
    20    29    31   ar
    21    31    32   ar
    22    23    24   ar
    23    24    25   ar
    24    11    12   ar
    25    12    13    1
    26    12    14   ar
    27    14    15   ar
    28    15    16    1
    29    15     6   ar
    30    14     9   ar
    31    25    20   ar
    32    32    26   ar
    33     3     4    1
    34    13    17    1
    35    13    18    1
@<TRIPOS>MOLECULE
*****
 32 35 0 0 0
SMALL
GASTEIGER

@<TRIPOS>ATOM
      1 C          59.1737   91.6349    4.6096 C.2     1  UNL1        0.2534
      2 O          57.7653   92.0539    4.9112 O.2     1  UNL1       -0.2695
      3 N          59.8206   90.5461    5.4133 N.am    1  UNL1       -0.2965
      4 H          60.7449   90.2710    5.2154 H       1  UNL1        0.1501
      5 C          64.3411   94.3912   -0.6176 C.3     1  UNL1        0.0537
      6 C          63.0536   94.1533    0.1142 C.ar    1  UNL1        0.0771
      7 N          61.7972   94.8375   -0.3365 N.ar    1  UNL1       -0.1522
      8 N          60.5096   94.5996    0.3953 N.ar    1  UNL1       -0.1416
      9 C          60.4784   93.6775    1.5779 C.ar    1  UNL1        0.1333
     10 S          59.3661   93.2519    2.4898 S.2     1  UNL1       -0.0604
     11 C          59.9351   92.3046    3.5043 C.ar    1  UNL1        0.0971
     12 C          61.3990   92.1447    3.2193 C.ar    1  UNL1        0.0538
     13 N          62.3587   91.2870    3.9895 N.pl3   1  UNL1       -0.3564
     14 C          61.7348   92.9932    2.0287 C.ar    1  UNL1        0.0363
     15 C          63.0224   93.2311    1.2968 C.ar    1  UNL1       -0.0033
     16 C          64.2788   92.5468    1.7477 C.3     1  UNL1        0.0324
     17 H          62.0414   90.7636    4.7607 H       1  UNL1        0.1424
     18 H          63.3059   91.2474    3.7240 H       1  UNL1        0.1424
     19 C          59.0592   89.8764    6.5186 C.3     1  UNL1        0.1166
     20 C          59.7548   88.9081    7.4290 C.ar    1  UNL1       -0.0026
     21 C          59.6552   87.4336    7.1725 C.ar    1  UNL1       -0.0026
     22 C          60.3508   86.4654    8.0828 C.ar    1  UNL1       -0.0002
     23 C          61.1459   86.9717    9.2496 C.ar    1  UNL1        0.0015
     24 C          61.2455   88.4462    9.5060 C.ar    1  UNL1       -0.0002
     25 C          60.5499   89.4144    8.5957 C.ar    1  UNL1       -0.0026
     26 C          61.8415   86.0034   10.1600 C.ar    1  UNL1        0.0193
     27 C          62.7424   84.9499    9.5869 C.ar    1  UNL1        0.0055
     28 C          63.4380   83.9817   10.4972 C.ar    1  UNL1        0.0497
     29 C          63.2327   84.0669   11.9806 C.ar    1  UNL1        0.2223
     30 F          63.9282   83.0987   12.8910 F       1  UNL1       -0.1832
     31 N          62.3317   85.1205   12.5537 N.ar    1  UNL1       -0.2165
     32 C          61.6362   86.0887   11.6434 C.ar    1  UNL1        0.1012
@<TRIPOS>BOND
     1     5     6    1
     2     6     7   ar
     3     7     8   ar
     4     8     9   ar
     5     9    10   ar
     6    10    11   ar
     7    11     1    1
     8     1     2    2
     9     1     3   am
    10     3    19    1
    11    19    20    1
    12    20    21   ar
    13    21    22   ar
    14    22    23   ar
    15    23    26    1
    16    26    27   ar
    17    27    28   ar
    18    28    29   ar
    19    29    30    1
    20    29    31   ar
    21    31    32   ar
    22    23    24   ar
    23    24    25   ar
    24    11    12   ar
    25    12    13    1
    26    12    14   ar
    27    14    15   ar
    28    15    16    1
    29    15     6   ar
    30    14     9   ar
    31    25    20   ar
    32    32    26   ar
    33     3     4    1
    34    13    17    1
    35    13    18    1
@<TRIPOS>MOLECULE
*****
 32 35 0 0 0
SMALL
GASTEIGER

@<TRIPOS>ATOM
      1 C          63.8438   89.3804   14.3057 C.2     1  UNL1        0.2534
      2 O          62.6215   89.4745   15.1700 O.2     1  UNL1       -0.2695
      3 N          64.6252   88.1014   14.2484 N.am    1  UNL1       -0.2965
      4 H          65.4275   88.0396   13.6811 H       1  UNL1        0.1501
      5 C          66.8731   95.9877   11.3406 C.3     1  UNL1        0.0537
      6 C          66.1090   94.7015   11.4491 C.ar    1  UNL1        0.0771
      7 N          65.3442   94.1816   10.2681 N.ar    1  UNL1       -0.1522
      8 N          64.5801   92.8954   10.3765 N.ar    1  UNL1       -0.1416
      9 C          64.5807   92.1291   11.6660 C.ar    1  UNL1        0.1333
     10 S          63.9251   90.8414   12.0687 S.2     1  UNL1       -0.0604
     11 C          64.2847   90.5655   13.4986 C.ar    1  UNL1        0.0971
     12 C          65.1625   91.6826   13.9796 C.ar    1  UNL1        0.0538
     13 N          65.7536   91.8109   15.3523 N.pl3   1  UNL1       -0.3564
     14 C          65.3454   92.6490   12.8470 C.ar    1  UNL1        0.0363
     15 C          66.1096   93.9352   12.7385 C.ar    1  UNL1       -0.0033
     16 C          66.8743   94.4551   13.9196 C.3     1  UNL1        0.0324
     17 H          65.5749   91.1211   16.0316 H       1  UNL1        0.1424
     18 H          66.3202   92.5849   15.5738 H       1  UNL1        0.1424
     19 C          64.1843   86.9164   15.0555 C.3     1  UNL1        0.1166
     20 C          63.9249   85.6029   14.3791 C.ar    1  UNL1       -0.0026
     21 C          63.4203   85.5732   12.9669 C.ar    1  UNL1       -0.0026
     22 C          63.1609   84.2597   12.2906 C.ar    1  UNL1       -0.0002
     23 C          63.4060   82.9759   13.0266 C.ar    1  UNL1        0.0015
     24 C          63.9105   83.0055   14.4388 C.ar    1  UNL1       -0.0002
     25 C          64.1700   84.3190   15.1151 C.ar    1  UNL1       -0.0026
     26 C          63.1465   81.6623   12.3502 C.ar    1  UNL1        0.0193
     27 C          63.2847   81.5452   10.8612 C.ar    1  UNL1        0.0055
     28 C          63.0252   80.2317   10.1849 C.ar    1  UNL1        0.0497
     29 C          62.6275   79.0353   10.9976 C.ar    1  UNL1        0.2223
     30 F          62.3680   77.7219   10.3213 F       1  UNL1       -0.1832
     31 N          62.4893   79.1525   12.4867 N.ar    1  UNL1       -0.2165
     32 C          62.7488   80.4660   13.1629 C.ar    1  UNL1        0.1012
@<TRIPOS>BOND
     1     5     6    1
     2     6     7   ar
     3     7     8   ar
     4     8     9   ar
     5     9    10   ar
     6    10    11   ar
     7    11     1    1
     8     1     2    2
     9     1     3   am
    10     3    19    1
    11    19    20    1
    12    20    21   ar
    13    21    22   ar
    14    22    23   ar
    15    23    26    1
    16    26    27   ar
    17    27    28   ar
    18    28    29   ar
    19    29    30    1
    20    29    31   ar
    21    31    32   ar
    22    23    24   ar
    23    24    25   ar
    24    11    12   ar
    25    12    13    1
    26    12    14   ar
    27    14    15   ar
    28    15    16    1
    29    15     6   ar
    30    14     9   ar
    31    25    20   ar
    32    32    26   ar
    33     3     4    1
    34    13    17    1
    35    13    18    1
@<TRIPOS>MOLECULE
*****
 32 35 0 0 0
SMALL
GASTEIGER

@<TRIPOS>ATOM
      1 C          59.5857   87.9346    7.7057 C.2     1  UNL1        0.2534
      2 O          58.5695   87.1359    6.9444 O.2     1  UNL1       -0.2695
      3 N          59.7787   89.3901    7.3988 N.am    1  UNL1       -0.2965
      4 H          60.4457   89.9143    7.8985 H       1  UNL1        0.1501
      5 C          64.3636   83.6010   12.1795 C.3     1  UNL1        0.0537
      6 C          63.3759   84.6495   11.7612 C.ar    1  UNL1        0.0771
      7 N          62.8260   85.6088   12.7748 N.ar    1  UNL1       -0.1522
      8 N          61.8383   86.6574   12.3564 N.ar    1  UNL1       -0.1416
      9 C          61.4004   86.7466   10.9246 C.ar    1  UNL1        0.1333
     10 S          60.4477   87.6677   10.2219 S.2     1  UNL1       -0.0604
     11 C          60.4088   87.2777    8.7740 C.ar    1  UNL1        0.0971
     12 C          61.3374   86.1155    8.5818 C.ar    1  UNL1        0.0538
     13 N          61.6060   85.4061    7.2878 N.pl3   1  UNL1       -0.3564
     14 C          61.9503   85.7873    9.9110 C.ar    1  UNL1        0.0363
     15 C          62.9380   84.7387   10.3294 C.ar    1  UNL1       -0.0033
     16 C          63.4879   83.7794    9.3157 C.3     1  UNL1        0.0324
     17 H          61.1527   85.6969    6.4637 H       1  UNL1        0.1424
     18 H          62.2357   84.6497    7.2626 H       1  UNL1        0.1424
     19 C          58.9557   90.0469    6.3306 C.3     1  UNL1        0.1166
     20 C          59.6252   90.8525    5.2569 C.ar    1  UNL1       -0.0026
     21 C          58.8402   91.8698    4.4830 C.ar    1  UNL1       -0.0026
     22 C          59.5097   92.6754    3.4093 C.ar    1  UNL1       -0.0002
     23 C          60.9642   92.4637    3.1096 C.ar    1  UNL1        0.0015
     24 C          61.7491   91.4464    3.8835 C.ar    1  UNL1       -0.0002
     25 C          61.0796   90.6408    4.9572 C.ar    1  UNL1       -0.0026
     26 C          61.6336   93.2693    2.0359 C.ar    1  UNL1        0.0193
     27 C          60.8065   93.9863    1.0103 C.ar    1  UNL1        0.0055
     28 C          61.4760   94.7919   -0.0634 C.ar    1  UNL1        0.0497
     29 C          62.9726   94.8805   -0.1115 C.ar    1  UNL1        0.2223
     30 F          63.6421   95.6861   -1.1851 F       1  UNL1       -0.1832
     31 N          63.7998   94.1635    0.9141 N.ar    1  UNL1       -0.2165
     32 C          63.1303   93.3579    1.9878 C.ar    1  UNL1        0.1012
@<TRIPOS>BOND
     1     5     6    1
     2     6     7   ar
     3     7     8   ar
     4     8     9   ar
     5     9    10   ar
     6    10    11   ar
     7    11     1    1
     8     1     2    2
     9     1     3   am
    10     3    19    1
    11    19    20    1
    12    20    21   ar
    13    21    22   ar
    14    22    23   ar
    15    23    26    1
    16    26    27   ar
    17    27    28   ar
    18    28    29   ar
    19    29    30    1
    20    29    31   ar
    21    31    32   ar
    22    23    24   ar
    23    24    25   ar
    24    11    12   ar
    25    12    13    1
    26    12    14   ar
    27    14    15   ar
    28    15    16    1
    29    15     6   ar
    30    14     9   ar
    31    25    20   ar
    32    32    26   ar
    33     3     4    1
    34    13    17    1
    35    13    18    1
