@<TRIPOS>MOLECULE
*****
 45 49 0 0 0
SMALL
GASTEIGER

@<TRIPOS>ATOM
      1 C          61.6721   87.3830    9.9462 C.ar    1  UNL1        0.0611
      2 C          61.5733   85.8885    9.8633 C.ar    1  UNL1        0.0112
      3 C          62.1332   85.0376   10.9645 C.ar    1  UNL1        0.0208
      4 C          62.7919   85.6813   12.1485 C.ar    1  UNL1        0.1218
      5 N          62.8907   87.1757   12.2313 N.ar    1  UNL1       -0.2421
      6 C          62.3308   88.0266   11.1302 C.ar    1  UNL1        0.1068
      7 C          63.3518   84.8304   13.2497 C.3     1  UNL1        0.3254
      8 F          62.0174   84.2115   12.9554 F       1  UNL1       -0.1949
      9 F          64.5873   85.6805   13.2783 F       1  UNL1       -0.1949
     10 C          63.9117   83.9796   14.3509 C.3     1  UNL1        0.1932
     11 O          64.4715   83.1287   15.4520 O.3     1  UNL1       -0.3755
     12 H          64.8379   83.6984   16.1464 H       1  UNL1        0.2110
     13 C          63.5087   82.7444   13.6013 C.ar    1  UNL1        0.0368
     14 C          62.4914   81.8103   14.1865 C.ar    1  UNL1        0.0028
     15 C          62.0885   80.5751   13.4369 C.ar    1  UNL1        0.0295
     16 C          62.7029   80.2739   12.1021 C.ar    1  UNL1        0.1424
     17 F          62.3000   79.0387   11.3526 F       1  UNL1       -0.2041
     18 C          63.7203   81.2079   11.5169 C.ar    1  UNL1        0.0590
     19 C          64.1232   82.4432   12.2665 C.ar    1  UNL1        0.1408
     20 F          65.1406   83.3772   11.6812 F       1  UNL1       -0.2043
     21 C          64.3146   85.2148   15.1004 C.3     1  UNL1        0.1679
     22 N          63.3243   85.9111   15.9861 N.ar    1  UNL1       -0.2078
     23 C          63.4228   87.3246   16.4781 C.ar    1  UNL1        0.2216
     24 N          62.2209   87.6033   17.3314 N.ar    1  UNL1       -0.1048
     25 N          61.3796   86.3620   17.3667 N.ar    1  UNL1       -0.0226
     26 N          62.0615   85.3162   16.5353 N.ar    1  UNL1       -0.0428
     27 C          60.5524   89.0847    7.7438 C.1     1  UNL1       -0.0597
     28 C          61.1123   88.2338    8.8450 C.1     1  UNL1       -0.0582
     29 C          58.8728   91.6372    4.4403 C.ar    1  UNL1        0.1391
     30 C          60.3579   91.5070    4.6062 C.ar    1  UNL1        0.0375
     31 C          60.9178   90.6562    5.7074 C.ar    1  UNL1        0.0114
     32 C          59.9925   89.9355    6.6426 C.ar    1  UNL1        0.0422
     33 C          58.5074   90.0658    6.4767 C.ar    1  UNL1        0.0114
     34 C          57.9476   90.9166    5.3755 C.ar    1  UNL1        0.0375
     35 O          58.3129   92.4881    3.3391 O.3     1  UNL1       -0.4706
     36 C          58.8805   92.3913    1.9541 C.3     1  UNL1        0.2342
     37 C          62.4714   94.8536    0.8171 C.ar    1  UNL1        0.0707
     38 C          61.4663   95.3974    1.7886 C.ar    1  UNL1        0.0102
     39 C          60.2694   94.5766    2.1676 C.ar    1  UNL1        0.0022
     40 C          60.0775   93.2121    1.5751 C.ar    1  UNL1        0.0487
     41 C          61.0826   92.6683    0.6035 C.ar    1  UNL1        0.1403
     42 F          60.8908   91.3037    0.0109 F       1  UNL1       -0.2044
     43 C          62.2796   93.4890    0.2245 C.ar    1  UNL1        0.0397
     44 N          64.8654   96.4951    0.0591 N.1     1  UNL1       -0.1908
     45 C          63.6684   95.6743    0.4381 C.1     1  UNL1        0.1005
@<TRIPOS>BOND
     1    44    45    3
     2    45    37    1
     3    37    38   ar
     4    38    39   ar
     5    39    40   ar
     6    40    36    1
     7    36    35    1
     8    35    29    1
     9    29    30   ar
    10    30    31   ar
    11    31    32   ar
    12    32    27    1
    13    27    28    3
    14    28     1    1
    15     1     2   ar
    16     2     3   ar
    17     3     4   ar
    18     4     7    1
    19     7     8    1
    20     7     9    1
    21     7    10    1
    22    10    11    1
    23    10    21    1
    24    21    22    1
    25    22    23   ar
    26    23    24   ar
    27    24    25   ar
    28    25    26   ar
    29    10    13    1
    30    13    14   ar
    31    14    15   ar
    32    15    16   ar
    33    16    17    1
    34    16    18   ar
    35    18    19   ar
    36    19    20    1
    37     4     5   ar
    38     5     6   ar
    39    32    33   ar
    40    33    34   ar
    41    40    41   ar
    42    41    42    1
    43    41    43   ar
    44    43    37   ar
    45    34    29   ar
    46     6     1   ar
    47    26    22   ar
    48    19    13   ar
    49    11    12    1
@<TRIPOS>MOLECULE
*****
 45 49 0 0 0
SMALL
GASTEIGER

@<TRIPOS>ATOM
      1 C          61.4317   87.4788    9.4606 C.ar    1  UNL1        0.0611
      2 C          62.0532   86.1553    9.1259 C.ar    1  UNL1        0.0112
      3 C          62.5628   85.2674   10.2222 C.ar    1  UNL1        0.0208
      4 C          62.4508   85.7030   11.6532 C.ar    1  UNL1        0.1218
      5 N          61.8293   87.0265   11.9878 N.ar    1  UNL1       -0.2421
      6 C          61.3197   87.9144   10.8915 C.ar    1  UNL1        0.1068
      7 C          62.9604   84.8151   12.7495 C.3     1  UNL1        0.3254
      8 F          61.6675   85.3518   13.2885 F       1  UNL1       -0.1949
      9 F          64.1658   84.4834   11.9206 F       1  UNL1       -0.1949
     10 C          63.4700   83.9271   13.8458 C.3     1  UNL1        0.1932
     11 O          63.9796   83.0392   14.9422 O.3     1  UNL1       -0.3755
     12 H          64.1051   82.1408   14.5986 H       1  UNL1        0.2110
     13 C          63.4443   85.0868   14.7970 C.ar    1  UNL1        0.0368
     14 C          64.2164   86.3333   14.4808 C.ar    1  UNL1        0.0028
     15 C          64.1907   87.4929   15.4319 C.ar    1  UNL1        0.0295
     16 C          63.3930   87.4060   16.6992 C.ar    1  UNL1        0.1424
     17 F          63.3673   88.5656   17.6503 F       1  UNL1       -0.2041
     18 C          62.6210   86.1594   17.0154 C.ar    1  UNL1        0.0590
     19 C          62.6466   84.9998   16.0642 C.ar    1  UNL1        0.1408
     20 F          61.8745   83.7532   16.3805 F       1  UNL1       -0.2043
     21 C          63.4957   82.7675   12.8947 C.3     1  UNL1        0.1679
     22 N          62.6731   81.5459   13.1791 N.ar    1  UNL1       -0.2078
     23 C          62.9025   80.1767   12.6113 C.ar    1  UNL1        0.2216
     24 N          61.8478   79.2635   13.1626 N.ar    1  UNL1       -0.1048
     25 N          60.9665   80.0684   14.0711 N.ar    1  UNL1       -0.0226
     26 N          61.4766   81.4790   14.0814 N.ar    1  UNL1       -0.0428
     27 C          60.4125   89.2547    7.2679 C.1     1  UNL1       -0.0597
     28 C          60.9221   88.3668    8.3642 C.1     1  UNL1       -0.0582
     29 C          58.8837   91.9184    3.9790 C.ar    1  UNL1        0.1391
     30 C          60.3571   91.6778    4.1254 C.ar    1  UNL1        0.0375
     31 C          60.8667   90.7899    5.2217 C.ar    1  UNL1        0.0114
     32 C          59.9029   90.1426    6.1716 C.ar    1  UNL1        0.0422
     33 C          58.4296   90.3832    6.0252 C.ar    1  UNL1        0.0114
     34 C          57.9200   91.2712    4.9288 C.ar    1  UNL1        0.0375
     35 O          58.3741   92.8064    2.8827 O.3     1  UNL1       -0.4706
     36 C          59.0042   92.7555    1.5224 C.3     1  UNL1        0.2342
     37 C          62.8705   94.9251    0.7511 C.ar    1  UNL1        0.0707
     38 C          61.7762   95.5956    1.5274 C.ar    1  UNL1        0.0102
     39 C          60.4874   94.8724    1.7845 C.ar    1  UNL1        0.0022
     40 C          60.2930   93.4787    1.2653 C.ar    1  UNL1        0.0487
     41 C          61.3874   92.8081    0.4890 C.ar    1  UNL1        0.1403
     42 F          61.1930   91.4143   -0.0302 F       1  UNL1       -0.2044
     43 C          62.6761   93.5313    0.2319 C.ar    1  UNL1        0.0397
     44 N          65.4481   96.3714    0.2369 N.1     1  UNL1       -0.1908
     45 C          64.1593   95.6482    0.4940 C.1     1  UNL1        0.1005
@<TRIPOS>BOND
     1    44    45    3
     2    45    37    1
     3    37    38   ar
     4    38    39   ar
     5    39    40   ar
     6    40    36    1
     7    36    35    1
     8    35    29    1
     9    29    30   ar
    10    30    31   ar
    11    31    32   ar
    12    32    27    1
    13    27    28    3
    14    28     1    1
    15     1     2   ar
    16     2     3   ar
    17     3     4   ar
    18     4     7    1
    19     7     8    1
    20     7     9    1
    21     7    10    1
    22    10    11    1
    23    10    21    1
    24    21    22    1
    25    22    23   ar
    26    23    24   ar
    27    24    25   ar
    28    25    26   ar
    29    10    13    1
    30    13    14   ar
    31    14    15   ar
    32    15    16   ar
    33    16    17    1
    34    16    18   ar
    35    18    19   ar
    36    19    20    1
    37     4     5   ar
    38     5     6   ar
    39    32    33   ar
    40    33    34   ar
    41    40    41   ar
    42    41    42    1
    43    41    43   ar
    44    43    37   ar
    45    34    29   ar
    46     6     1   ar
    47    26    22   ar
    48    19    13   ar
    49    11    12    1
@<TRIPOS>MOLECULE
*****
 45 49 0 0 0
SMALL
GASTEIGER

@<TRIPOS>ATOM
      1 C          61.4879   87.5636    9.4293 C.ar    1  UNL1        0.0611
      2 C          61.7481   86.1072    9.1815 C.ar    1  UNL1        0.0112
      3 C          62.2492   85.2349   10.2942 C.ar    1  UNL1        0.0208
      4 C          62.4901   85.8190   11.6547 C.ar    1  UNL1        0.1218
      5 N          62.2300   87.2754   11.9024 N.ar    1  UNL1       -0.2421
      6 C          61.7289   88.1476   10.7898 C.ar    1  UNL1        0.1068
      7 C          62.9912   84.9468   12.7674 C.3     1  UNL1        0.3254
      8 F          61.6925   85.4882   13.2873 F       1  UNL1       -0.1949
      9 F          64.2047   84.6063   11.9540 F       1  UNL1       -0.1949
     10 C          63.4923   84.0745   13.8800 C.3     1  UNL1        0.1932
     11 O          63.9934   83.2022   14.9927 O.3     1  UNL1       -0.3755
     12 H          64.1221   82.2992   14.6627 H       1  UNL1        0.2110
     13 C          63.4585   85.2472   14.8146 C.ar    1  UNL1        0.0368
     14 C          64.2007   86.5039   14.4684 C.ar    1  UNL1        0.0028
     15 C          64.1669   87.6766   15.4030 C.ar    1  UNL1        0.0295
     16 C          63.3908   87.5928   16.6839 C.ar    1  UNL1        0.1424
     17 F          63.3570   88.7655   17.6185 F       1  UNL1       -0.2041
     18 C          62.6486   86.3361   17.0301 C.ar    1  UNL1        0.0590
     19 C          62.6824   85.1634   16.0955 C.ar    1  UNL1        0.1408
     20 F          61.9401   83.9067   16.4418 F       1  UNL1       -0.2043
     21 C          63.5261   82.9017   12.9454 C.3     1  UNL1        0.1679
     22 N          62.6840   81.6931   13.2279 N.ar    1  UNL1       -0.2078
     23 C          62.8639   80.3322   12.6233 C.ar    1  UNL1        0.2216
     24 N          61.8051   79.4311   13.1863 N.ar    1  UNL1       -0.1048
     25 N          60.9707   80.2351   14.1389 N.ar    1  UNL1       -0.0226
     26 N          61.5139   81.6330   14.1646 N.ar    1  UNL1       -0.0428
     27 C          60.4857   89.3081    7.2040 C.1     1  UNL1       -0.0597
     28 C          60.9868   88.4359    8.3167 C.1     1  UNL1       -0.0582
     29 C          58.9824   91.9250    3.8660 C.ar    1  UNL1        0.1391
     30 C          60.4546   91.6863    4.0270 C.ar    1  UNL1        0.0375
     31 C          60.9557   90.8140    5.1396 C.ar    1  UNL1        0.0114
     32 C          59.9846   90.1804    6.0913 C.ar    1  UNL1        0.0422
     33 C          58.5126   90.4191    5.9303 C.ar    1  UNL1        0.0114
     34 C          58.0115   91.2914    4.8177 C.ar    1  UNL1        0.0375
     35 O          58.4813   92.7972    2.7533 O.3     1  UNL1       -0.4706
     36 C          59.4131   93.2263    1.6590 C.3     1  UNL1        0.2342
     37 C          58.1890   92.7682   -2.6470 C.ar    1  UNL1        0.0707
     38 C          57.1430   92.8775   -1.5775 C.ar    1  UNL1        0.0102
     39 C          57.5511   93.0302   -0.1422 C.ar    1  UNL1        0.0022
     40 C          59.0051   93.0736    0.2237 C.ar    1  UNL1        0.0487
     41 C          60.0511   92.9643   -0.8458 C.ar    1  UNL1        0.1403
     42 F          61.5052   93.0077   -0.4800 F       1  UNL1       -0.2044
     43 C          59.6431   92.8116   -2.2812 C.ar    1  UNL1        0.0397
     44 N          57.3730   92.4628   -5.5177 N.1     1  UNL1       -0.1908
     45 C          57.7810   92.6155   -4.0823 C.1     1  UNL1        0.1005
@<TRIPOS>BOND
     1    44    45    3
     2    45    37    1
     3    37    38   ar
     4    38    39   ar
     5    39    40   ar
     6    40    36    1
     7    36    35    1
     8    35    29    1
     9    29    30   ar
    10    30    31   ar
    11    31    32   ar
    12    32    27    1
    13    27    28    3
    14    28     1    1
    15     1     2   ar
    16     2     3   ar
    17     3     4   ar
    18     4     7    1
    19     7     8    1
    20     7     9    1
    21     7    10    1
    22    10    11    1
    23    10    21    1
    24    21    22    1
    25    22    23   ar
    26    23    24   ar
    27    24    25   ar
    28    25    26   ar
    29    10    13    1
    30    13    14   ar
    31    14    15   ar
    32    15    16   ar
    33    16    17    1
    34    16    18   ar
    35    18    19   ar
    36    19    20    1
    37     4     5   ar
    38     5     6   ar
    39    32    33   ar
    40    33    34   ar
    41    40    41   ar
    42    41    42    1
    43    41    43   ar
    44    43    37   ar
    45    34    29   ar
    46     6     1   ar
    47    26    22   ar
    48    19    13   ar
    49    11    12    1
@<TRIPOS>MOLECULE
*****
 45 49 0 0 0
SMALL
GASTEIGER

@<TRIPOS>ATOM
      1 C          60.4307   91.2130    4.7998 C.ar    1  UNL1        0.0611
      2 C          61.6109   91.4381    3.9018 C.ar    1  UNL1        0.0112
      3 C          61.4690   92.2915    2.6764 C.ar    1  UNL1        0.0208
      4 C          60.1468   92.9198    2.3491 C.ar    1  UNL1        0.1218
      5 N          58.9666   92.6947    3.2470 N.ar    1  UNL1       -0.2421
      6 C          59.1085   91.8413    4.4724 C.ar    1  UNL1        0.1068
      7 C          60.0049   93.7732    1.1237 C.3     1  UNL1        0.3254
      8 F          60.2818   92.4024    0.5812 F       1  UNL1       -0.1949
      9 F          59.7550   94.9732    1.9883 F       1  UNL1       -0.1949
     10 C          59.8630   94.6266   -0.1017 C.3     1  UNL1        0.1932
     11 O          59.7211   95.4801   -1.3271 O.3     1  UNL1       -0.3755
     12 H          58.7869   95.5230   -1.5848 H       1  UNL1        0.2110
     13 C          61.3450   94.8579   -0.1123 C.ar    1  UNL1        0.0368
     14 C          61.9505   95.8843    0.7987 C.ar    1  UNL1        0.0028
     15 C          63.4325   96.1155    0.7881 C.ar    1  UNL1        0.0295
     16 C          64.3091   95.3204   -0.1335 C.ar    1  UNL1        0.1424
     17 F          65.7911   95.5517   -0.1440 F       1  UNL1       -0.2041
     18 C          63.7036   94.2940   -1.0444 C.ar    1  UNL1        0.0590
     19 C          62.2216   94.0628   -1.0339 C.ar    1  UNL1        0.1408
     20 F          61.6162   93.0363   -1.9449 F       1  UNL1       -0.2043
     21 C          58.3810   94.3954   -0.0911 C.3     1  UNL1        0.1679
     22 N          57.7304   93.6480   -1.2172 N.ar    1  UNL1       -0.2078
     23 C          56.2736   93.6821   -1.5727 C.ar    1  UNL1        0.2216
     24 N          56.0654   92.7904   -2.7608 N.ar    1  UNL1       -0.1048
     25 N          57.3935   92.2052   -3.1397 N.ar    1  UNL1       -0.0226
     26 N          58.4226   92.7352   -2.1857 N.ar    1  UNL1       -0.0428
     27 C          60.7145   89.5062    7.2506 C.1     1  UNL1       -0.0597
     28 C          60.5726   90.3596    6.0252 C.1     1  UNL1       -0.0582
     29 C          61.1402   86.9459   10.9267 C.ar    1  UNL1        0.1391
     30 C          61.4089   88.4197   11.0039 C.ar    1  UNL1        0.0375
     31 C          61.2670   89.2731    9.7785 C.ar    1  UNL1        0.0114
     32 C          60.8564   88.6528    8.4759 C.ar    1  UNL1        0.0422
     33 C          60.5878   87.1791    8.3988 C.ar    1  UNL1        0.0114
     34 C          60.7297   86.3257    9.6242 C.ar    1  UNL1        0.0375
     35 O          61.2822   86.0925   12.1521 O.3     1  UNL1       -0.4706
     36 C          62.5531   85.3336   12.3944 C.3     1  UNL1        0.2342
     37 C          62.8634   81.0148   11.1690 C.ar    1  UNL1        0.0707
     38 C          62.3389   81.3730   12.5278 C.ar    1  UNL1        0.0102
     39 C          62.2354   82.8127   12.9363 C.ar    1  UNL1        0.0022
     40 C          62.6565   83.8940   11.9860 C.ar    1  UNL1        0.0487
     41 C          63.1811   83.5358   10.6271 C.ar    1  UNL1        0.1403
     42 F          63.6022   84.6172    9.6767 F       1  UNL1       -0.2044
     43 C          63.2845   82.0962   10.2187 C.ar    1  UNL1        0.0397
     44 N          63.0703   78.1356   10.3521 N.1     1  UNL1       -0.1908
     45 C          62.9669   79.5752   10.7605 C.1     1  UNL1        0.1005
@<TRIPOS>BOND
     1    44    45    3
     2    45    37    1
     3    37    38   ar
     4    38    39   ar
     5    39    40   ar
     6    40    36    1
     7    36    35    1
     8    35    29    1
     9    29    30   ar
    10    30    31   ar
    11    31    32   ar
    12    32    27    1
    13    27    28    3
    14    28     1    1
    15     1     2   ar
    16     2     3   ar
    17     3     4   ar
    18     4     7    1
    19     7     8    1
    20     7     9    1
    21     7    10    1
    22    10    11    1
    23    10    21    1
    24    21    22    1
    25    22    23   ar
    26    23    24   ar
    27    24    25   ar
    28    25    26   ar
    29    10    13    1
    30    13    14   ar
    31    14    15   ar
    32    15    16   ar
    33    16    17    1
    34    16    18   ar
    35    18    19   ar
    36    19    20    1
    37     4     5   ar
    38     5     6   ar
    39    32    33   ar
    40    33    34   ar
    41    40    41   ar
    42    41    42    1
    43    41    43   ar
    44    43    37   ar
    45    34    29   ar
    46     6     1   ar
    47    26    22   ar
    48    19    13   ar
    49    11    12    1
@<TRIPOS>MOLECULE
*****
 45 49 0 0 0
SMALL
GASTEIGER

@<TRIPOS>ATOM
      1 C          60.3193   91.7264    4.0986 C.ar    1  UNL1        0.0611
      2 C          61.5615   92.0114    3.3074 C.ar    1  UNL1        0.0112
      3 C          61.4845   92.8518    2.0673 C.ar    1  UNL1        0.0208
      4 C          60.1654   93.4073    1.6185 C.ar    1  UNL1        0.1218
      5 N          58.9233   93.1223    2.4097 N.ar    1  UNL1       -0.2421
      6 C          59.0003   92.2819    3.6497 C.ar    1  UNL1        0.1068
      7 C          60.0884   94.2478    0.3784 C.3     1  UNL1        0.3254
      8 F          60.6391   92.9385   -0.1040 F       1  UNL1       -0.1949
      9 F          59.5400   95.3874    1.1849 F       1  UNL1       -0.1949
     10 C          60.0114   95.0882   -0.8616 C.3     1  UNL1        0.1932
     11 O          59.9344   95.9287   -2.1017 O.3     1  UNL1       -0.3755
     12 H          60.5640   96.6634   -2.0339 H       1  UNL1        0.2110
     13 C          58.9515   94.1802   -1.4112 C.ar    1  UNL1        0.0368
     14 C          57.5719   94.1952   -0.8225 C.ar    1  UNL1        0.0028
     15 C          56.5120   93.2872   -1.3721 C.ar    1  UNL1        0.0295
     16 C          56.8316   92.3642   -2.5104 C.ar    1  UNL1        0.1424
     17 F          55.7716   91.4562   -3.0600 F       1  UNL1       -0.2041
     18 C          58.2111   92.3492   -3.0992 C.ar    1  UNL1        0.0590
     19 C          59.2710   93.2572   -2.5496 C.ar    1  UNL1        0.1408
     20 F          60.6506   93.2422   -3.1384 F       1  UNL1       -0.2043
     21 C          61.0713   95.9962   -0.3120 C.3     1  UNL1        0.1679
     22 N          62.5195   95.6960   -0.5620 N.ar    1  UNL1       -0.2078
     23 C          63.6014   95.6456    0.4757 C.ar    1  UNL1        0.2216
     24 N          64.8907   95.3118   -0.2145 N.ar    1  UNL1       -0.1048
     25 N          64.6056   95.1560   -1.6789 N.ar    1  UNL1       -0.0226
     26 N          63.1402   95.3934   -1.8937 N.ar    1  UNL1       -0.0428
     27 C          60.4733   90.0455    6.5786 C.1     1  UNL1       -0.0597
     28 C          60.3963   90.8860    5.3386 C.1     1  UNL1       -0.0582
     29 C          60.7043   87.5241   10.2988 C.ar    1  UNL1        0.1391
     30 C          61.2212   88.9323   10.3138 C.ar    1  UNL1        0.0375
     31 C          61.1442   89.7727    9.0738 C.ar    1  UNL1        0.0114
     32 C          60.5503   89.2050    7.8187 C.ar    1  UNL1        0.0422
     33 C          60.0335   87.7970    7.8037 C.ar    1  UNL1        0.0114
     34 C          60.1104   86.9566    9.0437 C.ar    1  UNL1        0.0375
     35 O          60.7813   86.6837   11.5388 O.3     1  UNL1       -0.4706
     36 C          62.1144   86.2321   12.0572 C.3     1  UNL1        0.2342
     37 C          62.7008   81.9577   13.3363 C.ar    1  UNL1        0.0707
     38 C          62.3031   82.9945   14.3447 C.ar    1  UNL1        0.0102
     39 C          62.1077   84.4193   13.9183 C.ar    1  UNL1        0.0022
     40 C          62.3099   84.8073   12.4836 C.ar    1  UNL1        0.0487
     41 C          62.7075   83.7705   11.4752 C.ar    1  UNL1        0.1403
     42 F          62.9097   84.1585   10.0403 F       1  UNL1       -0.2044
     43 C          62.9030   82.3458   11.9015 C.ar    1  UNL1        0.0397
     44 N          63.0917   79.1082   14.1889 N.1     1  UNL1       -0.1908
     45 C          62.8963   80.5330   13.7626 C.1     1  UNL1        0.1005
@<TRIPOS>BOND
     1    44    45    3
     2    45    37    1
     3    37    38   ar
     4    38    39   ar
     5    39    40   ar
     6    40    36    1
     7    36    35    1
     8    35    29    1
     9    29    30   ar
    10    30    31   ar
    11    31    32   ar
    12    32    27    1
    13    27    28    3
    14    28     1    1
    15     1     2   ar
    16     2     3   ar
    17     3     4   ar
    18     4     7    1
    19     7     8    1
    20     7     9    1
    21     7    10    1
    22    10    11    1
    23    10    21    1
    24    21    22    1
    25    22    23   ar
    26    23    24   ar
    27    24    25   ar
    28    25    26   ar
    29    10    13    1
    30    13    14   ar
    31    14    15   ar
    32    15    16   ar
    33    16    17    1
    34    16    18   ar
    35    18    19   ar
    36    19    20    1
    37     4     5   ar
    38     5     6   ar
    39    32    33   ar
    40    33    34   ar
    41    40    41   ar
    42    41    42    1
    43    41    43   ar
    44    43    37   ar
    45    34    29   ar
    46     6     1   ar
    47    26    22   ar
    48    19    13   ar
    49    11    12    1
@<TRIPOS>MOLECULE
*****
 45 49 0 0 0
SMALL
GASTEIGER

@<TRIPOS>ATOM
      1 C          61.6005   87.5539    9.5580 C.ar    1  UNL1        0.0611
      2 C          62.2656   88.1848   10.7453 C.ar    1  UNL1        0.0112
      3 C          62.7912   87.3241   11.8557 C.ar    1  UNL1        0.0208
      4 C          62.6516   85.8325   11.7787 C.ar    1  UNL1        0.1218
      5 N          61.9865   85.2017   10.5914 N.ar    1  UNL1       -0.2421
      6 C          61.4610   86.0624    9.4811 C.ar    1  UNL1        0.1068
      7 C          63.1772   84.9718   12.8891 C.3     1  UNL1        0.3254
      8 F          62.0414   84.1750   12.3188 F       1  UNL1       -0.1949
      9 F          64.2167   86.0076   13.2000 F       1  UNL1       -0.1949
     10 C          63.7028   84.1111   13.9995 C.3     1  UNL1        0.1932
     11 O          64.2284   83.2504   15.1099 O.3     1  UNL1       -0.3755
     12 H          64.5184   83.8126   15.8452 H       1  UNL1        0.2110
     13 C          63.4130   82.8846   13.1860 C.ar    1  UNL1        0.0368
     14 C          62.4234   81.8723   13.6819 C.ar    1  UNL1        0.0028
     15 C          62.1336   80.6459   12.8684 C.ar    1  UNL1        0.0295
     16 C          62.8333   80.4317   11.5590 C.ar    1  UNL1        0.1424
     17 F          62.5435   79.2052   10.7455 F       1  UNL1       -0.2041
     18 C          63.8229   81.4440   11.0632 C.ar    1  UNL1        0.0590
     19 C          64.1127   82.6705   11.8767 C.ar    1  UNL1        0.1408
     20 F          65.1024   83.6828   11.3808 F       1  UNL1       -0.2043
     21 C          63.9926   85.3376   14.8130 C.3     1  UNL1        0.1679
     22 N          63.0682   85.7357   15.9251 N.ar    1  UNL1       -0.2078
     23 C          61.5934   85.4687   15.9838 C.ar    1  UNL1        0.2216
     24 N          61.0699   86.0387   17.2689 N.ar    1  UNL1       -0.1048
     25 N          62.2212   86.6580   18.0043 N.ar    1  UNL1       -0.0226
     26 N          63.4562   86.4707   17.1739 N.ar    1  UNL1       -0.0428
     27 C          60.5493   89.2753    7.3372 C.1     1  UNL1       -0.0597
     28 C          61.0749   88.4146    8.4476 C.1     1  UNL1       -0.0582
     29 C          58.9725   91.8574    4.0061 C.ar    1  UNL1        0.1391
     30 C          60.4513   91.6699    4.1739 C.ar    1  UNL1        0.0375
     31 C          60.9769   90.8092    5.2843 C.ar    1  UNL1        0.0114
     32 C          60.0237   90.1360    6.2268 C.ar    1  UNL1        0.0422
     33 C          58.5450   90.3236    6.0590 C.ar    1  UNL1        0.0114
     34 C          58.0194   91.1843    4.9486 C.ar    1  UNL1        0.0375
     35 O          58.4470   92.7182    2.8957 O.3     1  UNL1       -0.4706
     36 C          59.3841   93.2541    1.8543 C.3     1  UNL1        0.2342
     37 C          58.3356   92.9085   -2.5081 C.ar    1  UNL1        0.0707
     38 C          57.2757   92.7154   -1.4644 C.ar    1  UNL1        0.0102
     39 C          57.6252   92.8306   -0.0103 C.ar    1  UNL1        0.0022
     40 C          59.0346   93.1389    0.4002 C.ar    1  UNL1        0.0487
     41 C          60.0945   93.3320   -0.6435 C.ar    1  UNL1        0.1403
     42 F          61.5040   93.6403   -0.2331 F       1  UNL1       -0.2044
     43 C          59.7450   93.2168   -2.0977 C.ar    1  UNL1        0.0397
     44 N          57.6365   92.6781   -5.4164 N.1     1  UNL1       -0.1908
     45 C          57.9861   92.7933   -3.9623 C.1     1  UNL1        0.1005
@<TRIPOS>BOND
     1    44    45    3
     2    45    37    1
     3    37    38   ar
     4    38    39   ar
     5    39    40   ar
     6    40    36    1
     7    36    35    1
     8    35    29    1
     9    29    30   ar
    10    30    31   ar
    11    31    32   ar
    12    32    27    1
    13    27    28    3
    14    28     1    1
    15     1     2   ar
    16     2     3   ar
    17     3     4   ar
    18     4     7    1
    19     7     8    1
    20     7     9    1
    21     7    10    1
    22    10    11    1
    23    10    21    1
    24    21    22    1
    25    22    23   ar
    26    23    24   ar
    27    24    25   ar
    28    25    26   ar
    29    10    13    1
    30    13    14   ar
    31    14    15   ar
    32    15    16   ar
    33    16    17    1
    34    16    18   ar
    35    18    19   ar
    36    19    20    1
    37     4     5   ar
    38     5     6   ar
    39    32    33   ar
    40    33    34   ar
    41    40    41   ar
    42    41    42    1
    43    41    43   ar
    44    43    37   ar
    45    34    29   ar
    46     6     1   ar
    47    26    22   ar
    48    19    13   ar
    49    11    12    1
@<TRIPOS>MOLECULE
*****
 45 49 0 0 0
SMALL
GASTEIGER

@<TRIPOS>ATOM
      1 C          60.3144   91.6765    4.0860 C.ar    1  UNL1        0.0611
      2 C          61.5552   91.9591    3.2919 C.ar    1  UNL1        0.0112
      3 C          61.4819   92.8232    2.0680 C.ar    1  UNL1        0.0208
      4 C          60.1676   93.4048    1.6382 C.ar    1  UNL1        0.1218
      5 N          58.9269   93.1222    2.4323 N.ar    1  UNL1       -0.2421
      6 C          59.0002   92.2581    3.6562 C.ar    1  UNL1        0.1068
      7 C          60.0943   94.2689    0.4144 C.3     1  UNL1        0.3254
      8 F          60.6712   92.9781   -0.0867 F       1  UNL1       -0.1949
      9 F          59.5180   95.3837    1.2360 F       1  UNL1       -0.1949
     10 C          60.0209   95.1331   -0.8095 C.3     1  UNL1        0.1932
     11 O          59.9475   95.9972   -2.0334 O.3     1  UNL1       -0.3755
     12 H          60.5802   96.7279   -1.9517 H       1  UNL1        0.2110
     13 C          58.9573   94.2400   -1.3763 C.ar    1  UNL1        0.0368
     14 C          57.5717   94.2662   -0.8023 C.ar    1  UNL1        0.0028
     15 C          56.5081   93.3732   -1.3691 C.ar    1  UNL1        0.0295
     16 C          56.8300   92.4540   -2.5098 C.ar    1  UNL1        0.1424
     17 F          55.7664   91.5610   -3.0766 F       1  UNL1       -0.2041
     18 C          58.2156   92.4278   -3.0838 C.ar    1  UNL1        0.0590
     19 C          59.2792   93.3208   -2.5170 C.ar    1  UNL1        0.1408
     20 F          60.6648   93.2946   -3.0911 F       1  UNL1       -0.2043
     21 C          61.0845   96.0261   -0.2428 C.3     1  UNL1        0.1679
     22 N          62.5297   95.7497   -0.5344 N.ar    1  UNL1       -0.2078
     23 C          63.6318   95.6587    0.4789 C.ar    1  UNL1        0.2216
     24 N          64.9098   95.3685   -0.2510 N.ar    1  UNL1       -0.1048
     25 N          64.5974   95.2801   -1.7154 N.ar    1  UNL1       -0.0226
     26 N          63.1264   95.5157   -1.8906 N.ar    1  UNL1       -0.0428
     27 C          60.4611   89.9482    6.5338 C.1     1  UNL1       -0.0597
     28 C          60.3877   90.8124    5.3099 C.1     1  UNL1       -0.0582
     29 C          60.6812   87.3558   10.2054 C.ar    1  UNL1        0.1391
     30 C          60.7003   88.8497   10.3398 C.ar    1  UNL1        0.0375
     31 C          60.6270   89.7138    9.1159 C.ar    1  UNL1        0.0114
     32 C          60.5345   89.0841    7.7576 C.ar    1  UNL1        0.0422
     33 C          60.5154   87.5903    7.6233 C.ar    1  UNL1        0.0114
     34 C          60.5888   86.7261    8.8471 C.ar    1  UNL1        0.0375
     35 O          60.7546   86.4917   11.4293 O.3     1  UNL1       -0.4706
     36 C          62.0825   86.1996   12.0627 C.3     1  UNL1        0.2342
     37 C          64.4434   89.5205   13.9727 C.ar    1  UNL1        0.0707
     38 C          63.5978   89.7996   12.7656 C.ar    1  UNL1        0.0102
     39 C          62.8109   88.6926   12.1290 C.ar    1  UNL1        0.0022
     40 C          62.8695   87.3066   12.6994 C.ar    1  UNL1        0.0487
     41 C          63.7150   87.0275   13.9064 C.ar    1  UNL1        0.1403
     42 F          63.7737   85.6414   14.4769 F       1  UNL1       -0.2044
     43 C          64.5020   88.1344   14.5431 C.ar    1  UNL1        0.0397
     44 N          66.0173   91.7344   15.2461 N.1     1  UNL1       -0.1908
     45 C          65.2303   90.6274   14.6094 C.1     1  UNL1        0.1005
@<TRIPOS>BOND
     1    44    45    3
     2    45    37    1
     3    37    38   ar
     4    38    39   ar
     5    39    40   ar
     6    40    36    1
     7    36    35    1
     8    35    29    1
     9    29    30   ar
    10    30    31   ar
    11    31    32   ar
    12    32    27    1
    13    27    28    3
    14    28     1    1
    15     1     2   ar
    16     2     3   ar
    17     3     4   ar
    18     4     7    1
    19     7     8    1
    20     7     9    1
    21     7    10    1
    22    10    11    1
    23    10    21    1
    24    21    22    1
    25    22    23   ar
    26    23    24   ar
    27    24    25   ar
    28    25    26   ar
    29    10    13    1
    30    13    14   ar
    31    14    15   ar
    32    15    16   ar
    33    16    17    1
    34    16    18   ar
    35    18    19   ar
    36    19    20    1
    37     4     5   ar
    38     5     6   ar
    39    32    33   ar
    40    33    34   ar
    41    40    41   ar
    42    41    42    1
    43    41    43   ar
    44    43    37   ar
    45    34    29   ar
    46     6     1   ar
    47    26    22   ar
    48    19    13   ar
    49    11    12    1
