@<TRIPOS>MOLECULE
*****
 31 32 0 0 0
SMALL
GASTEIGER

@<TRIPOS>ATOM
      1 C          64.8326   91.3872   13.4138 C.ar    1  UNL1       -0.0185
      2 C          64.1830   91.5680   12.0739 C.ar    1  UNL1       -0.0041
      3 C          64.6302   92.6759   11.1670 C.ar    1  UNL1        0.0057
      4 C          65.7269   93.6030   11.5999 C.ar    1  UNL1        0.0696
      5 C          66.3765   93.4223   12.9398 C.ar    1  UNL1        0.0095
      6 C          65.9294   92.3143   13.8467 C.ar    1  UNL1        0.0677
      7 C          63.0440   86.9555   17.0416 C.2     1  UNL1        0.2558
      8 O          62.4188   87.2771   18.3666 O.2     1  UNL1       -0.2721
      9 N          63.4912   88.0634   16.1347 N.am    1  UNL1       -0.2775
     10 C          64.1164   87.7419   14.8097 C.3     1  UNL1        0.0938
     11 C          64.5635   88.8498   13.9027 C.3     1  UNL1        0.0259
     12 C          64.3855   90.2793   14.3208 C.3     1  UNL1        0.0257
     13 C          63.7603   90.6008   15.6457 C.3     1  UNL1        0.0259
     14 C          63.3131   89.4929   16.5527 C.3     1  UNL1        0.0938
     15 C          63.2221   85.5260   16.6236 C.3     1  UNL1        0.2272
     16 C          62.4954   83.5521   15.0986 C.3     1  UNL1        0.1748
     17 O          62.1895   84.8626   15.7612 O.3     1  UNL1       -0.3417
     18 C          66.1741   94.7109   10.6929 C.2     1  UNL1        0.3078
     19 O          66.5915   96.0308   11.2706 O.2     1  UNL1       -0.2516
     20 N          66.2038   94.4990    9.2083 N.am    1  UNL1       -0.1708
     21 H          65.9298   93.6328    8.8291 H       1  UNL1        0.2545
     22 C          66.6510   95.6070    8.3014 C.2     1  UNL1        0.3751
     23 N          67.9701   96.2815    8.5353 N.pl3   1  UNL1       -0.1313
     24 N          65.7789   96.0403    7.1604 N.pl3   1  UNL1       -0.2906
     25 H          68.5424   95.9971    9.2842 H       1  UNL1        0.3060
     26 H          64.9131   95.5976    7.0068 H       1  UNL1        0.2545
     27 H          66.0724   96.7675    6.5651 H       1  UNL1        0.2545
     28 C          66.5790   92.1336   15.1867 C.3     1  UNL1        0.4183
     29 F          67.2287   91.9529   16.5265 F       1  UNL1       -0.1659
     30 F          65.6155   93.1145   15.7862 F       1  UNL1       -0.1659
     31 F          67.5425   91.1527   14.5871 F       1  UNL1       -0.1659
@<TRIPOS>BOND
     1    16    17    1
     2    17    15    1
     3    15     7    1
     4     7     8    2
     5     7     9   am
     6     9    10    1
     7    10    11    1
     8    11    12    1
     9    12     1    1
    10     1     2   ar
    11     2     3   ar
    12     3     4   ar
    13     4    18    1
    14    18    19    2
    15    18    20   am
    16    20    22    1
    17    22    23    2
    18    22    24    1
    19     4     5   ar
    20     5     6   ar
    21     6    28    1
    22    28    29    1
    23    28    30    1
    24    28    31    1
    25    12    13    1
    26    13    14    1
    27    14     9    1
    28     6     1   ar
    29    20    21    1
    30    23    25    1
    31    24    26    1
    32    24    27    1
@<TRIPOS>MOLECULE
*****
 31 32 0 0 0
SMALL
GASTEIGER

@<TRIPOS>ATOM
      1 C          60.9777   86.9508    9.0053 C.ar    1  UNL1       -0.0185
      2 C          60.1940   86.4320    7.8364 C.ar    1  UNL1       -0.0041
      3 C          59.4175   87.3816    6.9732 C.ar    1  UNL1        0.0057
      4 C          59.4246   88.8501    7.2789 C.ar    1  UNL1        0.0696
      5 C          60.2083   89.3689    8.4478 C.ar    1  UNL1        0.0095
      6 C          60.9849   88.4193    9.3111 C.ar    1  UNL1        0.0677
      7 C          64.0840   83.1524   12.4583 C.2     1  UNL1        0.2558
      8 O          65.1005   82.2380   11.8413 O.2     1  UNL1       -0.2721
      9 N          63.3075   84.1020   11.5951 N.am    1  UNL1       -0.2775
     10 C          62.2910   85.0163   12.2121 C.3     1  UNL1        0.0938
     11 C          61.5144   85.9659   11.3488 C.3     1  UNL1        0.0259
     12 C          61.7543   86.0012    9.8686 C.3     1  UNL1        0.0257
     13 C          62.7708   85.0869    9.2516 C.3     1  UNL1        0.0259
     14 C          63.5473   84.1373   10.1148 C.3     1  UNL1        0.0938
     15 C          63.8441   83.1171   13.9385 C.3     1  UNL1        0.2272
     16 C          61.8060   81.5256   14.1896 C.3     1  UNL1        0.1748
     17 O          63.2050   81.9140   14.5663 O.3     1  UNL1       -0.3417
     18 C          58.6480   89.7997    6.4156 C.2     1  UNL1        0.3078
     19 O          57.1540   89.6913    6.3372 O.2     1  UNL1       -0.2516
     20 N          59.3655   90.8576    5.6308 N.am    1  UNL1       -0.1708
     21 H          60.3460   90.9288    5.6823 H       1  UNL1        0.2545
     22 C          58.5889   91.8072    4.7676 C.2     1  UNL1        0.3751
     23 N          57.2024   92.2193    5.1649 N.pl3   1  UNL1       -0.1313
     24 N          59.1989   92.3449    3.5070 N.pl3   1  UNL1       -0.2906
     25 H          56.8021   91.8664    5.9922 H       1  UNL1        0.3060
     26 H          60.1089   92.0744    3.2463 H       1  UNL1        0.2545
     27 H          58.6892   92.9681    2.9404 H       1  UNL1        0.2545
     28 C          61.7687   88.9382   10.4801 C.3     1  UNL1        0.4183
     29 F          62.5524   89.4571   11.6490 F       1  UNL1       -0.1659
     30 F          60.5129   88.9905   11.2988 F       1  UNL1       -0.1659
     31 F          63.0244   88.8860    9.6613 F       1  UNL1       -0.1659
@<TRIPOS>BOND
     1    16    17    1
     2    17    15    1
     3    15     7    1
     4     7     8    2
     5     7     9   am
     6     9    10    1
     7    10    11    1
     8    11    12    1
     9    12     1    1
    10     1     2   ar
    11     2     3   ar
    12     3     4   ar
    13     4    18    1
    14    18    19    2
    15    18    20   am
    16    20    22    1
    17    22    23    2
    18    22    24    1
    19     4     5   ar
    20     5     6   ar
    21     6    28    1
    22    28    29    1
    23    28    30    1
    24    28    31    1
    25    12    13    1
    26    13    14    1
    27    14     9    1
    28     6     1   ar
    29    20    21    1
    30    23    25    1
    31    24    26    1
    32    24    27    1
@<TRIPOS>MOLECULE
*****
 31 32 0 0 0
SMALL
GASTEIGER

@<TRIPOS>ATOM
      1 C          64.7035   90.7604   13.6470 C.ar    1  UNL1       -0.0185
      2 C          65.8499   91.6133   14.1032 C.ar    1  UNL1       -0.0041
      3 C          66.3015   92.7732   13.2660 C.ar    1  UNL1        0.0057
      4 C          65.6066   93.0801   11.9726 C.ar    1  UNL1        0.0696
      5 C          64.4601   92.2272   11.5165 C.ar    1  UNL1        0.0095
      6 C          64.0086   91.0673   12.3537 C.ar    1  UNL1        0.0677
      7 C          62.8973   86.1212   16.9959 C.2     1  UNL1        0.2558
      8 O          62.2911   86.3622   18.3466 O.2     1  UNL1       -0.2721
      9 N          63.3488   87.2810   16.1587 N.am    1  UNL1       -0.2775
     10 C          63.9550   87.0400   14.8080 C.3     1  UNL1        0.0938
     11 C          64.4065   88.1998   13.9708 C.3     1  UNL1        0.0259
     12 C          64.2519   89.6006   14.4843 C.3     1  UNL1        0.0257
     13 C          63.6458   89.8416   15.8350 C.3     1  UNL1        0.0259
     14 C          63.1942   88.6818   16.6722 C.3     1  UNL1        0.0938
     15 C          63.0519   84.7203   16.4824 C.3     1  UNL1        0.2272
     16 C          62.4643   82.9161   14.7078 C.3     1  UNL1        0.1748
     17 O          62.1655   84.2239   15.3789 O.3     1  UNL1       -0.3417
     18 C          66.0581   94.2399   11.1354 C.2     1  UNL1        0.3078
     19 O          66.1642   95.6071   11.7430 O.2     1  UNL1       -0.2516
     20 N          66.4035   94.0324    9.6905 N.am    1  UNL1       -0.1708
     21 H          66.3339   93.1350    9.2917 H       1  UNL1        0.2545
     22 C          66.8551   95.1922    8.8533 C.2     1  UNL1        0.3751
     23 N          68.0243   96.0234    9.2916 N.pl3   1  UNL1       -0.1313
     24 N          66.1373   95.5209    7.5778 N.pl3   1  UNL1       -0.2906
     25 H          68.4953   95.8077   10.1287 H       1  UNL1        0.3060
     26 H          65.3699   94.9754    7.2901 H       1  UNL1        0.2545
     27 H          66.4337   96.2821    7.0283 H       1  UNL1        0.2545
     28 C          62.8620   90.2144   11.8975 C.3     1  UNL1        0.4183
     29 F          61.7156   89.3615   11.4412 F       1  UNL1       -0.1659
     30 F          62.1375   90.5029   13.1788 F       1  UNL1       -0.1659
     31 F          63.5865   89.9260   10.6161 F       1  UNL1       -0.1659
@<TRIPOS>BOND
     1    16    17    1
     2    17    15    1
     3    15     7    1
     4     7     8    2
     5     7     9   am
     6     9    10    1
     7    10    11    1
     8    11    12    1
     9    12     1    1
    10     1     2   ar
    11     2     3   ar
    12     3     4   ar
    13     4    18    1
    14    18    19    2
    15    18    20   am
    16    20    22    1
    17    22    23    2
    18    22    24    1
    19     4     5   ar
    20     5     6   ar
    21     6    28    1
    22    28    29    1
    23    28    30    1
    24    28    31    1
    25    12    13    1
    26    13    14    1
    27    14     9    1
    28     6     1   ar
    29    20    21    1
    30    23    25    1
    31    24    26    1
    32    24    27    1
@<TRIPOS>MOLECULE
*****
 31 32 0 0 0
SMALL
GASTEIGER

@<TRIPOS>ATOM
      1 C          63.3482   86.3342   13.1026 C.ar    1  UNL1       -0.0185
      2 C          64.2001   86.9076   14.1960 C.ar    1  UNL1       -0.0041
      3 C          64.4915   88.3787   14.2264 C.ar    1  UNL1        0.0057
      4 C          63.9311   89.2764   13.1634 C.ar    1  UNL1        0.0696
      5 C          63.0792   88.7030   12.0701 C.ar    1  UNL1        0.0095
      6 C          62.7878   87.2319   12.0397 C.ar    1  UNL1        0.0677
      7 C          62.1825   80.4498   12.9810 C.2     1  UNL1        0.2558
      8 O          62.6845   79.6091   11.8447 O.2     1  UNL1       -0.2721
      9 N          62.4740   81.9209   13.0114 N.am    1  UNL1       -0.2775
     10 C          61.9720   82.7615   14.1477 C.3     1  UNL1        0.0938
     11 C          62.2635   84.2326   14.1782 C.3     1  UNL1        0.0259
     12 C          63.0568   84.8631   13.0722 C.3     1  UNL1        0.0257
     13 C          63.5587   84.0224   11.9359 C.3     1  UNL1        0.0259
     14 C          63.2673   82.5513   11.9055 C.3     1  UNL1        0.0938
     15 C          61.3892   79.8193   14.0869 C.3     1  UNL1        0.2272
     16 C          58.8368   79.5659   14.5007 C.3     1  UNL1        0.1748
     17 O          60.0749   80.4128   14.4997 O.3     1  UNL1       -0.3417
     18 C          64.2225   90.7475   13.1939 C.2     1  UNL1        0.3078
     19 O          63.2146   91.7229   12.6620 O.2     1  UNL1       -0.2516
     20 N          65.5217   91.2432   13.7561 N.am    1  UNL1       -0.1708
     21 H          66.1832   90.6031   14.1051 H       1  UNL1        0.2545
     22 C          65.8132   92.7143   13.7865 C.2     1  UNL1        0.3751
     23 N          66.1593   93.3837   15.0834 N.pl3   1  UNL1       -0.1313
     24 N          65.7584   93.5161   12.5199 N.pl3   1  UNL1       -0.2906
     25 H          66.1952   92.8575   15.9147 H       1  UNL1        0.3060
     26 H          65.5312   93.0768   11.6686 H       1  UNL1        0.2545
     27 H          65.9497   94.4816   12.5398 H       1  UNL1        0.2545
     28 C          61.9358   86.6585   10.9462 C.3     1  UNL1        0.4183
     29 F          61.0839   86.0852    9.8529 F       1  UNL1       -0.1659
     30 F          63.0360   86.9086    9.9578 F       1  UNL1       -0.1659
     31 F          60.8356   86.4084   11.9346 F       1  UNL1       -0.1659
@<TRIPOS>BOND
     1    16    17    1
     2    17    15    1
     3    15     7    1
     4     7     8    2
     5     7     9   am
     6     9    10    1
     7    10    11    1
     8    11    12    1
     9    12     1    1
    10     1     2   ar
    11     2     3   ar
    12     3     4   ar
    13     4    18    1
    14    18    19    2
    15    18    20   am
    16    20    22    1
    17    22    23    2
    18    22    24    1
    19     4     5   ar
    20     5     6   ar
    21     6    28    1
    22    28    29    1
    23    28    30    1
    24    28    31    1
    25    12    13    1
    26    13    14    1
    27    14     9    1
    28     6     1   ar
    29    20    21    1
    30    23    25    1
    31    24    26    1
    32    24    27    1
@<TRIPOS>MOLECULE
*****
 31 32 0 0 0
SMALL
GASTEIGER

@<TRIPOS>ATOM
      1 C          61.3011   87.5697    9.7693 C.ar    1  UNL1       -0.0185
      2 C          60.6662   88.8978   10.0571 C.ar    1  UNL1       -0.0041
      3 C          60.0053   89.6682    8.9527 C.ar    1  UNL1        0.0057
      4 C          59.9794   89.1105    7.5605 C.ar    1  UNL1        0.0696
      5 C          60.6143   87.7824    7.2727 C.ar    1  UNL1        0.0095
      6 C          61.2752   87.0120    8.3771 C.ar    1  UNL1        0.0677
      7 C          63.9447   84.4879   14.1868 C.2     1  UNL1        0.2558
      8 O          64.7923   85.2028   15.1970 O.2     1  UNL1       -0.2721
      9 N          63.2838   85.2584   13.0824 N.am    1  UNL1       -0.2775
     10 C          62.4362   84.5435   12.0722 C.3     1  UNL1        0.0938
     11 C          61.7754   85.3139   10.9679 C.3     1  UNL1        0.0259
     12 C          61.9620   86.7992   10.8737 C.3     1  UNL1        0.0257
     13 C          62.8096   87.5141   11.8838 C.3     1  UNL1        0.0259
     14 C          63.4705   86.7437   12.9882 C.3     1  UNL1        0.0938
     15 C          63.7580   83.0026   14.2810 C.3     1  UNL1        0.2272
     16 C          61.7028   81.4149   14.2073 C.3     1  UNL1        0.1748
     17 O          62.5265   82.4410   14.9276 O.3     1  UNL1       -0.3417
     18 C          59.3185   89.8809    6.4561 C.2     1  UNL1        0.3078
     19 O          60.1468   90.4718    5.3540 O.2     1  UNL1       -0.2516
     20 N          57.8293   90.0605    6.4539 N.am    1  UNL1       -0.1708
     21 H          57.2857   89.6727    7.1773 H       1  UNL1        0.2545
     22 C          57.1684   90.8309    5.3495 C.2     1  UNL1        0.3751
     23 N          55.6851   90.7326    5.1499 N.pl3   1  UNL1       -0.1313
     24 N          57.9910   91.6997    4.4446 N.pl3   1  UNL1       -0.2906
     25 H          55.1452   90.1624    5.7438 H       1  UNL1        0.3060
     26 H          58.9646   91.7643    4.5756 H       1  UNL1        0.2545
     27 H          57.5573   92.2054    3.7198 H       1  UNL1        0.2545
     28 C          61.9102   85.6838    8.0892 C.3     1  UNL1        0.4183
     29 F          62.5451   84.3557    7.8013 F       1  UNL1       -0.1659
     30 F          63.2624   86.2693    8.3698 F       1  UNL1       -0.1659
     31 F          60.5581   85.0982    7.8086 F       1  UNL1       -0.1659
@<TRIPOS>BOND
     1    16    17    1
     2    17    15    1
     3    15     7    1
     4     7     8    2
     5     7     9   am
     6     9    10    1
     7    10    11    1
     8    11    12    1
     9    12     1    1
    10     1     2   ar
    11     2     3   ar
    12     3     4   ar
    13     4    18    1
    14    18    19    2
    15    18    20   am
    16    20    22    1
    17    22    23    2
    18    22    24    1
    19     4     5   ar
    20     5     6   ar
    21     6    28    1
    22    28    29    1
    23    28    30    1
    24    28    31    1
    25    12    13    1
    26    13    14    1
    27    14     9    1
    28     6     1   ar
    29    20    21    1
    30    23    25    1
    31    24    26    1
    32    24    27    1
@<TRIPOS>MOLECULE
*****
 31 32 0 0 0
SMALL
GASTEIGER

@<TRIPOS>ATOM
      1 C          63.5737   86.0924   13.1824 C.ar    1  UNL1       -0.0185
      2 C          64.4123   86.5014   14.3568 C.ar    1  UNL1       -0.0041
      3 C          64.6452   87.9554   14.6421 C.ar    1  UNL1        0.0057
      4 C          64.0394   89.0006   13.7530 C.ar    1  UNL1        0.0696
      5 C          63.2007   88.5917   12.5786 C.ar    1  UNL1        0.0095
      6 C          62.9679   87.1376   12.2933 C.ar    1  UNL1        0.0677
      7 C          62.6423   80.2761   12.0411 C.2     1  UNL1        0.2558
      8 O          62.0297   79.3949   13.0890 O.2     1  UNL1       -0.2721
      9 N          62.8751   81.7302   12.3264 N.am    1  UNL1       -0.2775
     10 C          63.4877   82.6114   11.2785 C.3     1  UNL1        0.0938
     11 C          63.7205   84.0655   11.5638 C.3     1  UNL1        0.0259
     12 C          63.3408   84.6383   12.8971 C.3     1  UNL1        0.0257
     13 C          62.7283   83.7571   13.9450 C.3     1  UNL1        0.0259
     14 C          62.4954   82.3030   13.6597 C.3     1  UNL1        0.0938
     15 C          63.0219   79.7032   10.7078 C.3     1  UNL1        0.2272
     16 C          63.0965   77.1174   10.4664 C.3     1  UNL1        0.1748
     17 O          62.3968   78.4241   10.2356 O.3     1  UNL1       -0.3417
     18 C          64.2722   90.4547   14.0383 C.2     1  UNL1        0.3078
     19 O          63.2475   91.2433   14.7985 O.2     1  UNL1       -0.2516
     20 N          65.5298   91.1202   13.5635 N.am    1  UNL1       -0.1708
     21 H          66.2025   90.6026   13.0646 H       1  UNL1        0.2545
     22 C          65.7627   92.5742   13.8488 C.2     1  UNL1        0.3751
     23 N          65.7847   93.0664   15.2656 N.pl3   1  UNL1       -0.1313
     24 N          65.9736   93.5362   12.7173 N.pl3   1  UNL1       -0.2906
     25 H          65.6462   92.4351   16.0082 H       1  UNL1        0.3060
     26 H          65.9592   93.2131   11.7874 H       1  UNL1        0.2545
     27 H          66.1264   94.4905   12.9045 H       1  UNL1        0.2545
     28 C          62.1291   86.7287   11.1187 C.3     1  UNL1        0.4183
     29 F          61.2905   86.3198    9.9442 F       1  UNL1       -0.1659
     30 F          61.2025   85.9894   12.0378 F       1  UNL1       -0.1659
     31 F          63.0558   87.4679   10.1997 F       1  UNL1       -0.1659
@<TRIPOS>BOND
     1    16    17    1
     2    17    15    1
     3    15     7    1
     4     7     8    2
     5     7     9   am
     6     9    10    1
     7    10    11    1
     8    11    12    1
     9    12     1    1
    10     1     2   ar
    11     2     3   ar
    12     3     4   ar
    13     4    18    1
    14    18    19    2
    15    18    20   am
    16    20    22    1
    17    22    23    2
    18    22    24    1
    19     4     5   ar
    20     5     6   ar
    21     6    28    1
    22    28    29    1
    23    28    30    1
    24    28    31    1
    25    12    13    1
    26    13    14    1
    27    14     9    1
    28     6     1   ar
    29    20    21    1
    30    23    25    1
    31    24    26    1
    32    24    27    1
@<TRIPOS>MOLECULE
*****
 31 32 0 0 0
SMALL
GASTEIGER

@<TRIPOS>ATOM
      1 C          64.5160   89.6540   13.8775 C.ar    1  UNL1       -0.0185
      2 C          65.7118   90.2798   14.5321 C.ar    1  UNL1       -0.0041
      3 C          66.1651   91.6475   14.1152 C.ar    1  UNL1        0.0057
      4 C          65.4227   92.3895   13.0437 C.ar    1  UNL1        0.0696
      5 C          64.2269   91.7638   12.3891 C.ar    1  UNL1        0.0095
      6 C          63.7736   90.3960   12.8060 C.ar    1  UNL1        0.0677
      7 C          62.7027   84.1831   15.5451 C.2     1  UNL1        0.2558
      8 O          62.4558   83.8841   16.9940 O.2     1  UNL1       -0.2721
      9 N          63.1560   85.5508   15.1282 N.am    1  UNL1       -0.2775
     10 C          63.4029   85.8499   13.6792 C.3     1  UNL1        0.0938
     11 C          63.8562   87.2176   13.2623 C.3     1  UNL1        0.0259
     12 C          64.0627   88.2863   14.2944 C.3     1  UNL1        0.0257
     13 C          63.8158   87.9873   15.7434 C.3     1  UNL1        0.0259
     14 C          63.3625   86.6195   16.1603 C.3     1  UNL1        0.0938
     15 C          62.4962   83.1144   14.5130 C.3     1  UNL1        0.2272
     16 C          63.9920   81.3629   13.3109 C.3     1  UNL1        0.1748
     17 O          63.3196   81.8614   14.5557 O.3     1  UNL1       -0.3417
     18 C          65.8760   93.7572   12.6268 C.2     1  UNL1        0.3078
     19 O          66.4999   94.6793   13.6320 O.2     1  UNL1       -0.2516
     20 N          65.7054   94.2028   11.2048 N.am    1  UNL1       -0.1708
     21 H          65.2959   93.5976   10.5450 H       1  UNL1        0.2545
     22 C          66.1588   95.5706   10.7879 C.2     1  UNL1        0.3751
     23 N          67.1057   95.7279    9.6353 N.pl3   1  UNL1       -0.1313
     24 N          65.6651   96.7810   11.5237 N.pl3   1  UNL1       -0.2906
     25 H          67.4297   94.9335    9.1524 H       1  UNL1        0.3060
     26 H          65.0436   96.6777   12.2802 H       1  UNL1        0.2545
     27 H          65.9627   97.6787   11.2500 H       1  UNL1        0.2545
     28 C          62.5778   89.7703   12.1513 C.3     1  UNL1        0.4183
     29 F          61.3820   89.1446   11.4966 F       1  UNL1       -0.1659
     30 F          61.7850   89.9693   13.4090 F       1  UNL1       -0.1659
     31 F          63.3705   89.5713   10.8936 F       1  UNL1       -0.1659
@<TRIPOS>BOND
     1    16    17    1
     2    17    15    1
     3    15     7    1
     4     7     8    2
     5     7     9   am
     6     9    10    1
     7    10    11    1
     8    11    12    1
     9    12     1    1
    10     1     2   ar
    11     2     3   ar
    12     3     4   ar
    13     4    18    1
    14    18    19    2
    15    18    20   am
    16    20    22    1
    17    22    23    2
    18    22    24    1
    19     4     5   ar
    20     5     6   ar
    21     6    28    1
    22    28    29    1
    23    28    30    1
    24    28    31    1
    25    12    13    1
    26    13    14    1
    27    14     9    1
    28     6     1   ar
    29    20    21    1
    30    23    25    1
    31    24    26    1
    32    24    27    1
@<TRIPOS>MOLECULE
*****
 31 32 0 0 0
SMALL
GASTEIGER

@<TRIPOS>ATOM
      1 C          61.0970   87.0481    8.9314 C.ar    1  UNL1       -0.0185
      2 C          60.8502   88.4417    9.4283 C.ar    1  UNL1       -0.0041
      3 C          60.1195   89.4272    8.5652 C.ar    1  UNL1        0.0057
      4 C          59.6357   89.0192    7.2053 C.ar    1  UNL1        0.0696
      5 C          59.8826   87.6256    6.7084 C.ar    1  UNL1        0.0095
      6 C          60.6133   86.6401    7.5715 C.ar    1  UNL1        0.0677
      7 C          64.0197   83.1058   12.3835 C.2     1  UNL1        0.2558
      8 O          65.0268   82.1766   11.7733 O.2     1  UNL1       -0.2721
      9 N          63.2890   84.0914   11.5204 N.am    1  UNL1       -0.2775
     10 C          62.2820   85.0206   12.1306 C.3     1  UNL1        0.0938
     11 C          61.5513   86.0062   11.2676 C.3     1  UNL1        0.0259
     12 C          61.8277   86.0625    9.7944 C.3     1  UNL1        0.0257
     13 C          62.8348   85.1333    9.1842 C.3     1  UNL1        0.0259
     14 C          63.5654   84.1478   10.0472 C.3     1  UNL1        0.0938
     15 C          63.7433   83.0495   13.8567 C.3     1  UNL1        0.2272
     16 C          61.8506   81.2726   13.7521 C.3     1  UNL1        0.1748
     17 O          63.0459   81.8583   14.4439 O.3     1  UNL1       -0.3417
     18 C          58.9051   90.0048    6.3423 C.2     1  UNL1        0.3078
     19 O          57.4123   89.9291    6.2161 O.2     1  UNL1       -0.2516
     20 N          59.6671   91.0660    5.6055 N.am    1  UNL1       -0.1708
     21 H          60.6469   91.1157    5.6883 H       1  UNL1        0.2545
     22 C          58.9365   92.0516    4.7425 C.2     1  UNL1        0.3751
     23 N          57.4924   92.3567    5.0100 N.pl3   1  UNL1       -0.1313
     24 N          59.6499   92.7320    3.6119 N.pl3   1  UNL1       -0.2906
     25 H          57.0242   91.9102    5.7520 H       1  UNL1        0.3060
     26 H          60.5977   92.5317    3.4363 H       1  UNL1        0.2545
     27 H          59.1704   93.3788    3.0455 H       1  UNL1        0.2545
     28 C          60.8601   85.2464    7.0745 C.3     1  UNL1        0.4183
     29 F          61.1070   83.8529    6.5775 F       1  UNL1       -0.1659
     30 F          59.4423   84.8796    7.3986 F       1  UNL1       -0.1659
     31 F          62.2780   85.6132    6.7504 F       1  UNL1       -0.1659
@<TRIPOS>BOND
     1    16    17    1
     2    17    15    1
     3    15     7    1
     4     7     8    2
     5     7     9   am
     6     9    10    1
     7    10    11    1
     8    11    12    1
     9    12     1    1
    10     1     2   ar
    11     2     3   ar
    12     3     4   ar
    13     4    18    1
    14    18    19    2
    15    18    20   am
    16    20    22    1
    17    22    23    2
    18    22    24    1
    19     4     5   ar
    20     5     6   ar
    21     6    28    1
    22    28    29    1
    23    28    30    1
    24    28    31    1
    25    12    13    1
    26    13    14    1
    27    14     9    1
    28     6     1   ar
    29    20    21    1
    30    23    25    1
    31    24    26    1
    32    24    27    1
@<TRIPOS>MOLECULE
*****
 31 32 0 0 0
SMALL
GASTEIGER

@<TRIPOS>ATOM
      1 C          63.1024   89.3480   12.0956 C.ar    1  UNL1       -0.0185
      2 C          63.4700   88.7154   13.4050 C.ar    1  UNL1       -0.0041
      3 C          64.3163   89.4667   14.3896 C.ar    1  UNL1        0.0057
      4 C          64.7948   90.8507   14.0648 C.ar    1  UNL1        0.0696
      5 C          64.4271   91.4833   12.7554 C.ar    1  UNL1        0.0095
      6 C          63.5809   90.7320   11.7708 C.ar    1  UNL1        0.0677
      7 C          59.7175   86.3426    8.1573 C.2     1  UNL1        0.2558
      8 O          58.2608   86.6713    8.0158 O.2     1  UNL1       -0.2721
      9 N          60.5637   87.0940    9.1419 N.am    1  UNL1       -0.2775
     10 C          62.0204   86.7653    9.2833 C.3     1  UNL1        0.0938
     11 C          62.8666   87.5167   10.2679 C.3     1  UNL1        0.0259
     12 C          62.2561   88.5967   11.1110 C.3     1  UNL1        0.0257
     13 C          60.7995   88.9253   10.9695 C.3     1  UNL1        0.0259
     14 C          59.9533   88.1740    9.9850 C.3     1  UNL1        0.0938
     15 C          60.3279   85.2626    7.3142 C.3     1  UNL1        0.2272
     16 C          62.3451   84.4845    5.8735 C.3     1  UNL1        0.1748
     17 O          61.7989   85.2811    7.0212 O.3     1  UNL1       -0.3417
     18 C          65.6410   91.6021   15.0493 C.2     1  UNL1        0.3078
     19 O          65.0071   92.2411   16.2492 O.2     1  UNL1       -0.2516
     20 N          67.1212   91.7143   14.8341 N.am    1  UNL1       -0.1708
     21 H          67.5373   91.2949   14.0466 H       1  UNL1        0.2545
     22 C          67.9674   92.4657   15.8187 C.2     1  UNL1        0.3751
     23 N          67.6350   93.8875   16.1621 N.pl3   1  UNL1       -0.1313
     24 N          69.1462   91.7952   16.4598 N.pl3   1  UNL1       -0.2906
     25 H          66.8613   94.3275   15.7413 H       1  UNL1        0.3060
     26 H          69.3644   90.8620   16.2344 H       1  UNL1        0.2545
     27 H          69.7016   92.2883   17.1061 H       1  UNL1        0.2545
     28 C          63.2132   91.3647   10.4613 C.3     1  UNL1        0.4183
     29 F          62.8455   91.9974    9.1520 F       1  UNL1       -0.1659
     30 F          64.6481   91.3033   10.0287 F       1  UNL1       -0.1659
     31 F          61.7783   91.4261   10.8940 F       1  UNL1       -0.1659
@<TRIPOS>BOND
     1    16    17    1
     2    17    15    1
     3    15     7    1
     4     7     8    2
     5     7     9   am
     6     9    10    1
     7    10    11    1
     8    11    12    1
     9    12     1    1
    10     1     2   ar
    11     2     3   ar
    12     3     4   ar
    13     4    18    1
    14    18    19    2
    15    18    20   am
    16    20    22    1
    17    22    23    2
    18    22    24    1
    19     4     5   ar
    20     5     6   ar
    21     6    28    1
    22    28    29    1
    23    28    30    1
    24    28    31    1
    25    12    13    1
    26    13    14    1
    27    14     9    1
    28     6     1   ar
    29    20    21    1
    30    23    25    1
    31    24    26    1
    32    24    27    1
