@<TRIPOS>MOLECULE
*****
 33 36 0 0 0
SMALL
GASTEIGER

@<TRIPOS>ATOM
      1 N          64.5047   91.8032   12.2412 N.ar    1  UNL1       -0.2570
      2 C          65.7724   92.5816   12.4339 C.ar    1  UNL1        0.1213
      3 C          66.3804   92.6984   13.8001 C.ar    1  UNL1        0.0935
      4 C          65.7208   92.0368   14.9737 C.ar    1  UNL1        0.2674
      5 O          66.3289   92.1537   16.3399 O.2     1  UNL1       -0.2667
      6 N          64.4531   91.2584   14.7810 N.ar    1  UNL1       -0.2428
      7 C          63.8451   91.1416   13.4147 C.ar    1  UNL1        0.3357
      8 O          62.5774   90.3633   13.2220 O.2     1  UNL1       -0.2461
      9 N          66.4320   93.2432   11.2604 N.pl3   1  UNL1       -0.2930
     10 C          66.2202   94.7065   11.0076 C.3     1  UNL1        0.0922
     11 C          66.8798   95.3681    9.8341 C.3     1  UNL1        0.0229
     12 C          67.7512   94.5664    8.9133 C.3     1  UNL1        0.0190
     13 C          67.9630   93.1031    9.1660 C.3     1  UNL1        0.0709
     14 N          68.8345   92.3014    8.2452 N.3     1  UNL1       -0.3208
     15 C          67.3034   92.4414   10.3396 C.3     1  UNL1        0.1075
     16 H          68.8662   91.3331    8.5644 H       1  UNL1        0.1189
     17 H          69.7774   92.6904    8.2450 H       1  UNL1        0.1189
     18 C          63.8966   91.6864   10.8750 C.3     1  UNL1        0.1879
     19 C          61.7608   87.9107    9.6783 C.3     1  UNL1        0.0900
     20 C          62.4727   89.1693   10.0772 C.1     1  UNL1       -0.0881
     21 C          63.1846   90.4278   10.4761 C.1     1  UNL1       -0.0655
     22 C          63.7935   90.5969   15.9546 C.3     1  UNL1        0.1592
     23 C          63.6211   89.1069   15.9764 C.ar    1  UNL1        0.0820
     24 C          63.0430   88.4365   17.1873 C.ar    1  UNL1        0.0167
     25 C          62.8707   86.9466   17.2090 C.ar    1  UNL1        0.0028
     26 C          63.2764   86.1272   16.0200 C.ar    1  UNL1        0.0182
     27 C          63.1040   84.6372   16.0418 C.ar    1  UNL1        0.0082
     28 C          63.5097   83.8178   14.8527 C.ar    1  UNL1        0.0347
     29 BR         63.3373   82.3279   14.8745 Br      1  UNL1       -0.0490
     30 C          64.0878   84.4883   13.6418 C.ar    1  UNL1        0.0082
     31 C          64.2602   85.9782   13.6200 C.ar    1  UNL1        0.0196
     32 C          63.8545   86.7976   14.8091 C.ar    1  UNL1        0.0810
     33 N          64.0268   88.2875   14.7873 N.ar    1  UNL1       -0.2477
@<TRIPOS>BOND
     1    19    20    1
     2    20    21    3
     3    21    18    1
     4    18     1    1
     5     1     2   ar
     6     2     9    1
     7     9    10    1
     8    10    11    1
     9    11    12    1
    10    12    13    1
    11    13    14    1
    12    13    15    1
    13     2     3   ar
    14     3     4   ar
    15     4     5    2
    16     4     6   ar
    17     6    22    1
    18    22    23    1
    19    23    24   ar
    20    24    25   ar
    21    25    26   ar
    22    26    27   ar
    23    27    28   ar
    24    28    29    1
    25    28    30   ar
    26    30    31   ar
    27    31    32   ar
    28    32    33   ar
    29     6     7   ar
    30     7     8    2
    31     7     1   ar
    32    15     9    1
    33    33    23   ar
    34    32    26   ar
    35    14    16    1
    36    14    17    1
@<TRIPOS>MOLECULE
*****
 33 36 0 0 0
SMALL
GASTEIGER

@<TRIPOS>ATOM
      1 N          64.7447   91.5453   12.4777 N.ar    1  UNL1       -0.2570
      2 C          65.1460   91.4244   13.9179 C.ar    1  UNL1        0.1213
      3 C          64.2340   90.7453   14.8961 C.ar    1  UNL1        0.0935
      4 C          62.9206   90.1869   14.4341 C.ar    1  UNL1        0.2674
      5 O          62.0086   89.5077   15.4123 O.2     1  UNL1       -0.2667
      6 N          62.5193   90.3078   12.9938 N.ar    1  UNL1       -0.2428
      7 C          63.4314   90.9870   12.0156 C.ar    1  UNL1        0.3357
      8 O          63.0301   91.1079   10.5753 O.2     1  UNL1       -0.2461
      9 N          66.4593   91.9827   14.3800 N.pl3   1  UNL1       -0.2930
     10 C          66.5141   92.8670   15.5905 C.3     1  UNL1        0.0922
     11 C          67.8274   93.4253   16.0525 C.3     1  UNL1        0.0229
     12 C          69.0859   93.0994   15.3042 C.3     1  UNL1        0.0190
     13 C          69.0311   92.2151   14.0938 C.3     1  UNL1        0.0709
     14 N          70.2896   91.8892   13.3455 N.3     1  UNL1       -0.3208
     15 C          67.7177   91.6568   13.6317 C.3     1  UNL1        0.1075
     16 H          70.0684   91.2814   12.5568 H       1  UNL1        0.1189
     17 H          70.9422   91.4137   13.9687 H       1  UNL1        0.1189
     18 C          65.6567   92.2245   11.4995 C.3     1  UNL1        0.1879
     19 C          66.0885   96.7033   11.5617 C.3     1  UNL1        0.0900
     20 C          65.9446   95.2104   11.5409 C.1     1  UNL1       -0.0881
     21 C          65.8007   93.7175   11.5202 C.1     1  UNL1       -0.0655
     22 C          61.2061   89.7495   12.5318 C.3     1  UNL1        0.1592
     23 C          61.1432   88.9095   11.2906 C.ar    1  UNL1        0.0820
     24 C          60.1890   89.2676   10.1901 C.ar    1  UNL1        0.0167
     25 C          60.1262   88.4276    8.9490 C.ar    1  UNL1        0.0028
     26 C          61.0176   87.2294    8.8084 C.ar    1  UNL1        0.0182
     27 C          60.9548   86.3893    7.5672 C.ar    1  UNL1        0.0082
     28 C          61.8462   85.1911    7.4266 C.ar    1  UNL1        0.0347
     29 BR         61.7834   84.3511    6.1856 Br      1  UNL1       -0.0490
     30 C          62.8004   84.8330    8.5273 C.ar    1  UNL1        0.0082
     31 C          62.8632   85.6730    9.7683 C.ar    1  UNL1        0.0196
     32 C          61.9718   86.8712    9.9089 C.ar    1  UNL1        0.0810
     33 N          62.0346   87.7113   11.1500 N.ar    1  UNL1       -0.2477
@<TRIPOS>BOND
     1    19    20    1
     2    20    21    3
     3    21    18    1
     4    18     1    1
     5     1     2   ar
     6     2     9    1
     7     9    10    1
     8    10    11    1
     9    11    12    1
    10    12    13    1
    11    13    14    1
    12    13    15    1
    13     2     3   ar
    14     3     4   ar
    15     4     5    2
    16     4     6   ar
    17     6    22    1
    18    22    23    1
    19    23    24   ar
    20    24    25   ar
    21    25    26   ar
    22    26    27   ar
    23    27    28   ar
    24    28    29    1
    25    28    30   ar
    26    30    31   ar
    27    31    32   ar
    28    32    33   ar
    29     6     7   ar
    30     7     8    2
    31     7     1   ar
    32    15     9    1
    33    33    23   ar
    34    32    26   ar
    35    14    16    1
    36    14    17    1
@<TRIPOS>MOLECULE
*****
 33 36 0 0 0
SMALL
GASTEIGER

@<TRIPOS>ATOM
      1 N          64.9816   91.7087   12.3484 N.ar    1  UNL1       -0.2570
      2 C          65.5017   91.2426   13.6759 C.ar    1  UNL1        0.1213
      3 C          64.8939   90.0429   14.3402 C.ar    1  UNL1        0.0935
      4 C          63.7659   89.3094   13.6770 C.ar    1  UNL1        0.2674
      5 O          63.1581   88.1097   14.3414 O.2     1  UNL1       -0.2667
      6 N          63.2458   89.7756   12.3496 N.ar    1  UNL1       -0.2428
      7 C          63.8537   90.9753   11.6852 C.ar    1  UNL1        0.3357
      8 O          63.3336   91.4414   10.3578 O.2     1  UNL1       -0.2461
      9 N          66.6296   91.9760   14.3390 N.pl3   1  UNL1       -0.2930
     10 C          66.3555   92.8731   15.5096 C.3     1  UNL1        0.0922
     11 C          67.4834   93.6065   16.1727 C.3     1  UNL1        0.0229
     12 C          68.8855   93.4430   15.6653 C.3     1  UNL1        0.0190
     13 C          69.1596   92.5460   14.4948 C.3     1  UNL1        0.0709
     14 N          70.5617   92.3825   13.9874 N.3     1  UNL1       -0.3208
     15 C          68.0317   91.8125   13.8316 C.3     1  UNL1        0.1075
     16 H          70.5635   91.7419   13.1936 H       1  UNL1        0.1189
     17 H          71.1502   92.0052   14.7301 H       1  UNL1        0.1189
     18 C          65.5894   92.9084   11.6840 C.3     1  UNL1        0.1879
     19 C          68.9249   92.3842    8.7092 C.3     1  UNL1        0.0900
     20 C          67.8131   92.5590    9.7008 C.1     1  UNL1       -0.0881
     21 C          66.7013   92.7337   10.6924 C.1     1  UNL1       -0.0655
     22 C          62.1179   89.0421   11.6864 C.3     1  UNL1        0.1592
     23 C          62.3092   87.6257   11.2312 C.ar    1  UNL1        0.0820
     24 C          62.2457   87.2924    9.7701 C.ar    1  UNL1        0.0167
     25 C          62.4370   85.8761    9.3149 C.ar    1  UNL1        0.0028
     26 C          62.6918   84.7929   10.3208 C.ar    1  UNL1        0.0182
     27 C          62.8831   83.3765    9.8656 C.ar    1  UNL1        0.0082
     28 C          63.1379   82.2933   10.8715 C.ar    1  UNL1        0.0347
     29 BR         63.3292   80.8770   10.4163 Br      1  UNL1       -0.0490
     30 C          63.2014   82.6266   12.3326 C.ar    1  UNL1        0.0082
     31 C          63.0101   84.0430   12.7878 C.ar    1  UNL1        0.0196
     32 C          62.7553   85.1261   11.7819 C.ar    1  UNL1        0.0810
     33 N          62.5640   86.5425   12.2371 N.ar    1  UNL1       -0.2477
@<TRIPOS>BOND
     1    19    20    1
     2    20    21    3
     3    21    18    1
     4    18     1    1
     5     1     2   ar
     6     2     9    1
     7     9    10    1
     8    10    11    1
     9    11    12    1
    10    12    13    1
    11    13    14    1
    12    13    15    1
    13     2     3   ar
    14     3     4   ar
    15     4     5    2
    16     4     6   ar
    17     6    22    1
    18    22    23    1
    19    23    24   ar
    20    24    25   ar
    21    25    26   ar
    22    26    27   ar
    23    27    28   ar
    24    28    29    1
    25    28    30   ar
    26    30    31   ar
    27    31    32   ar
    28    32    33   ar
    29     6     7   ar
    30     7     8    2
    31     7     1   ar
    32    15     9    1
    33    33    23   ar
    34    32    26   ar
    35    14    16    1
    36    14    17    1
@<TRIPOS>MOLECULE
*****
 33 36 0 0 0
SMALL
GASTEIGER

@<TRIPOS>ATOM
      1 N          65.0054   91.6523   12.4712 N.ar    1  UNL1       -0.2570
      2 C          65.3337   91.5524   13.9314 C.ar    1  UNL1        0.1213
      3 C          64.3941   90.8482   14.8649 C.ar    1  UNL1        0.0935
      4 C          63.1263   90.2439   14.3381 C.ar    1  UNL1        0.2674
      5 O          62.1868   89.5397   15.2716 O.2     1  UNL1       -0.2667
      6 N          62.7980   90.3438   12.8779 N.ar    1  UNL1       -0.2428
      7 C          63.7376   91.0481   11.9444 C.ar    1  UNL1        0.3357
      8 O          63.4094   91.1480   10.4842 O.2     1  UNL1       -0.2461
      9 N          66.6014   92.1567   14.4582 N.pl3   1  UNL1       -0.2930
     10 C          66.5578   93.0802   15.6394 C.3     1  UNL1        0.0922
     11 C          67.8256   93.6845   16.1662 C.3     1  UNL1        0.0229
     12 C          69.1370   93.3653   15.5118 C.3     1  UNL1        0.0190
     13 C          69.1807   92.4418   14.3307 C.3     1  UNL1        0.0709
     14 N          70.4921   92.1226   13.6763 N.3     1  UNL1       -0.3208
     15 C          67.9129   91.8375   13.8038 C.3     1  UNL1        0.1075
     16 H          70.3363   91.4847   12.8958 H       1  UNL1        0.1189
     17 H          71.1131   91.6831   14.3558 H       1  UNL1        0.1189
     18 C          65.9449   92.3565   11.5378 C.3     1  UNL1        0.1879
     19 C          66.0620   96.8538   11.4327 C.3     1  UNL1        0.0900
     20 C          66.0230   95.3547   11.4677 C.1     1  UNL1       -0.0881
     21 C          65.9839   93.8557   11.5027 C.1     1  UNL1       -0.0655
     22 C          61.5302   89.7396   12.3511 C.3     1  UNL1        0.1592
     23 C          61.5902   88.6402   11.3323 C.ar    1  UNL1        0.0820
     24 C          62.5660   87.5136   11.5011 C.ar    1  UNL1        0.0167
     25 C          62.6259   86.4144   10.4823 C.ar    1  UNL1        0.0028
     26 C          61.7099   86.4417    9.2947 C.ar    1  UNL1        0.0182
     27 C          61.7699   85.3423    8.2759 C.ar    1  UNL1        0.0082
     28 C          60.8539   85.3697    7.0883 C.ar    1  UNL1        0.0347
     29 BR         60.9138   84.2704    6.0695 Br      1  UNL1       -0.0490
     30 C          59.8781   86.4964    6.9195 C.ar    1  UNL1        0.0082
     31 C          59.8182   87.5956    7.9383 C.ar    1  UNL1        0.0196
     32 C          60.7341   87.5683    9.1259 C.ar    1  UNL1        0.0810
     33 N          60.6742   88.6675   10.1447 N.ar    1  UNL1       -0.2477
@<TRIPOS>BOND
     1    19    20    1
     2    20    21    3
     3    21    18    1
     4    18     1    1
     5     1     2   ar
     6     2     9    1
     7     9    10    1
     8    10    11    1
     9    11    12    1
    10    12    13    1
    11    13    14    1
    12    13    15    1
    13     2     3   ar
    14     3     4   ar
    15     4     5    2
    16     4     6   ar
    17     6    22    1
    18    22    23    1
    19    23    24   ar
    20    24    25   ar
    21    25    26   ar
    22    26    27   ar
    23    27    28   ar
    24    28    29    1
    25    28    30   ar
    26    30    31   ar
    27    31    32   ar
    28    32    33   ar
    29     6     7   ar
    30     7     8    2
    31     7     1   ar
    32    15     9    1
    33    33    23   ar
    34    32    26   ar
    35    14    16    1
    36    14    17    1
@<TRIPOS>MOLECULE
*****
 33 36 0 0 0
SMALL
GASTEIGER

@<TRIPOS>ATOM
      1 N          61.9818   86.5281   11.1147 N.ar    1  UNL1       -0.2570
      2 C          62.8385   85.7998   12.1075 C.ar    1  UNL1        0.1213
      3 C          63.6604   86.5711   13.0972 C.ar    1  UNL1        0.0935
      4 C          63.6257   88.0707   13.0941 C.ar    1  UNL1        0.2674
      5 O          64.4476   88.8420   14.0838 O.2     1  UNL1       -0.2667
      6 N          62.7690   88.7990   12.1013 N.ar    1  UNL1       -0.2428
      7 C          61.9470   88.0277   11.1115 C.ar    1  UNL1        0.3357
      8 O          61.0904   88.7560   10.1187 O.2     1  UNL1       -0.2461
      9 N          62.8732   84.3003   12.1106 N.pl3   1  UNL1       -0.2930
     10 C          63.4278   83.5604   10.9294 C.3     1  UNL1        0.0922
     11 C          63.4625   82.0609   10.9325 C.3     1  UNL1        0.0229
     12 C          62.9427   81.3011   12.1168 C.3     1  UNL1        0.0190
     13 C          62.3882   82.0408   13.2979 C.3     1  UNL1        0.0709
     14 N          61.8684   81.2810   14.4822 N.3     1  UNL1       -0.3208
     15 C          62.3534   83.5405   13.2949 C.3     1  UNL1        0.1075
     16 H          61.5324   81.9377   15.1867 H       1  UNL1        0.1189
     17 H          62.6177   80.7126   14.8770 H       1  UNL1        0.1189
     18 C          61.1599   85.7569   10.1249 C.3     1  UNL1        0.1879
     19 C          62.8644   84.7500    6.0838 C.3     1  UNL1        0.0900
     20 C          62.2963   85.0856    7.4309 C.1     1  UNL1       -0.0881
     21 C          61.7281   85.4213    8.7779 C.1     1  UNL1       -0.0655
     22 C          62.7342   90.2986   12.0982 C.3     1  UNL1        0.1592
     23 C          63.9295   91.0775   12.5615 C.ar    1  UNL1        0.0820
     24 C          64.8335   91.7312   11.5588 C.ar    1  UNL1        0.0167
     25 C          66.0287   92.5100   12.0222 C.ar    1  UNL1        0.0028
     26 C          66.3200   92.6352   13.4883 C.ar    1  UNL1        0.0182
     27 C          67.5153   93.4141   13.9517 C.ar    1  UNL1        0.0082
     28 C          67.8066   93.5393   15.4178 C.ar    1  UNL1        0.0347
     29 BR         69.0018   94.3181   15.8812 Br      1  UNL1       -0.0490
     30 C          66.9025   92.8855   16.4206 C.ar    1  UNL1        0.0082
     31 C          65.7073   92.1067   15.9572 C.ar    1  UNL1        0.0196
     32 C          65.4160   91.9815   14.4911 C.ar    1  UNL1        0.0810
     33 N          64.2208   91.2027   14.0277 N.ar    1  UNL1       -0.2477
@<TRIPOS>BOND
     1    19    20    1
     2    20    21    3
     3    21    18    1
     4    18     1    1
     5     1     2   ar
     6     2     9    1
     7     9    10    1
     8    10    11    1
     9    11    12    1
    10    12    13    1
    11    13    14    1
    12    13    15    1
    13     2     3   ar
    14     3     4   ar
    15     4     5    2
    16     4     6   ar
    17     6    22    1
    18    22    23    1
    19    23    24   ar
    20    24    25   ar
    21    25    26   ar
    22    26    27   ar
    23    27    28   ar
    24    28    29    1
    25    28    30   ar
    26    30    31   ar
    27    31    32   ar
    28    32    33   ar
    29     6     7   ar
    30     7     8    2
    31     7     1   ar
    32    15     9    1
    33    33    23   ar
    34    32    26   ar
    35    14    16    1
    36    14    17    1
