@<TRIPOS>MOLECULE
*****
 57 61 0 0 0
SMALL
GASTEIGER

@<TRIPOS>ATOM
      1 C          62.5016   87.4911   11.4806 C.3     1  UNL1        0.0760
      2 C          62.6539   89.1844   13.4452 C.2     1  UNL1        0.2404
      3 O          61.3475   89.7897   13.0248 O.2     1  UNL1       -0.2733
      4 N          63.2310   88.0351   12.6732 N.am    1  UNL1       -0.3043
      5 H          64.0884   87.6378   12.9492 H       1  UNL1        0.1494
      6 C          63.3833   89.7283   14.6377 C.3     1  UNL1        0.1511
      7 N          66.4882   92.1203   15.2607 N.am    1  UNL1       -0.2567
      8 C          66.9338   93.1691   16.2360 C.3     1  UNL1        0.1168
      9 C          65.1585   91.4487   15.4369 C.2     1  UNL1        0.3046
     10 O          64.2745   91.8260   16.5884 O.2     1  UNL1       -0.2526
     11 N          64.7129   90.3999   14.4615 N.am    1  UNL1       -0.2824
     12 H          65.2932   90.1523   13.7057 H       1  UNL1        0.1514
     13 C          67.3722   91.7430   14.1092 C.3     1  UNL1        0.1413
     14 C          67.3933   92.9657   10.4254 C.ar    1  UNL1        0.0875
     15 N          68.0602   92.2844   11.5835 N.ar    1  UNL1       -0.2453
     16 C          67.1128   92.3132   12.7463 C.ar    1  UNL1        0.0858
     17 C          65.8607   93.0124   12.3067 C.ar    1  UNL1        0.0530
     18 S          66.0340   93.4157   10.8724 S.2     1  UNL1       -0.0705
     19 C          68.8703   92.1088    8.4674 C.3     1  UNL1        0.0069
     20 C          67.9825   93.1626    9.0601 C.3     1  UNL1        0.0465
     21 C          67.6839   94.4132    8.2875 C.3     1  UNL1        0.0069
     22 C          62.7830   89.6008   16.0065 C.3     1  UNL1        0.0463
     23 C          63.2447   88.5122   16.9294 C.3     1  UNL1        0.0745
     24 N          63.3728   87.1053   16.4250 N.3     1  UNL1       -0.2684
     25 C          64.4769   86.7468   15.4752 C.3     1  UNL1        0.1046
     26 C          64.6050   85.3400   14.9708 C.3     1  UNL1        0.1595
     27 O          63.6289   84.2917   15.4163 O.3     1  UNL1       -0.3508
     28 C          62.5248   84.6503   16.3662 C.3     1  UNL1        0.1595
     29 C          62.3967   86.0571   16.8705 C.3     1  UNL1        0.1046
     30 C          62.5158   88.2457   10.1843 C.3     1  UNL1        0.0216
     31 C          61.3016   89.0111    9.7488 C.3     1  UNL1        0.0217
     32 C          60.4702   88.5111    8.6047 C.3     1  UNL1        0.0792
     33 N          60.0748   89.4458    7.5002 N.am    1  UNL1       -0.2720
     34 C          58.8140   89.2005    6.7254 C.2     1  UNL1        0.4019
     35 O          57.9487   88.0205    7.0551 O.2     1  UNL1       -0.2264
     36 H          60.6427   90.2203    7.2838 H       1  UNL1        0.1527
     37 O          58.4185   90.1352    5.6209 O.3     1  UNL1       -0.4291
     38 C          58.9987   91.5173    5.5643 C.3     1  UNL1        0.2447
     39 C          59.9727   91.8780    4.4821 C.ar    1  UNL1        0.0714
     40 C          61.3739   91.3596    4.3482 C.ar    1  UNL1        0.1053
     41 N          61.9837   91.9817    3.1271 N.ar    1  UNL1       -0.2350
     42 C          60.9594   92.8847    2.5062 C.ar    1  UNL1        0.1343
     43 S          59.7165   92.8206    3.3437 S.2     1  UNL1       -0.0652
     44 C          60.0343   87.0764    8.5652 C.3     1  UNL1        0.0460
     45 C          60.8079   86.0796    7.7539 C.ar    1  UNL1       -0.0205
     46 C          60.1051   85.2400    6.7287 C.ar    1  UNL1       -0.0042
     47 C          60.8787   84.2432    5.9175 C.ar    1  UNL1       -0.0003
     48 C          62.3550   84.0861    6.1316 C.ar    1  UNL1       -0.0000
     49 C          63.0577   84.9257    7.1568 C.ar    1  UNL1       -0.0003
     50 C          62.2842   85.9224    7.9680 C.ar    1  UNL1       -0.0042
     51 C          61.7581   86.1925   11.5844 C.3     1  UNL1        0.0459
     52 C          62.5053   84.8934   11.5227 C.ar    1  UNL1       -0.0205
     53 C          62.2971   83.8570   12.5869 C.ar    1  UNL1       -0.0042
     54 C          63.0444   82.5579   12.5252 C.ar    1  UNL1       -0.0003
     55 C          64.0000   82.2951   11.3992 C.ar    1  UNL1       -0.0000
     56 C          64.2082   83.3314   10.3350 C.ar    1  UNL1       -0.0003
     57 C          63.4609   84.6306   10.3967 C.ar    1  UNL1       -0.0042
@<TRIPOS>BOND
     1    19    20    1
     2    20    21    1
     3    20    14    1
     4    14    15   ar
     5    15    16   ar
     6    16    13    1
     7    13     7    1
     8     7     8    1
     9     7     9   am
    10     9    10    2
    11     9    11   am
    12    11     6    1
    13     6    22    1
    14    22    23    1
    15    23    24    1
    16    24    25    1
    17    25    26    1
    18    26    27    1
    19    27    28    1
    20    28    29    1
    21     6     2    1
    22     2     3    2
    23     2     4   am
    24     4     1    1
    25     1    30    1
    26    30    31    1
    27    32    31    1
    28    32    44    1
    29    44    45    1
    30    45    46   ar
    31    46    47   ar
    32    47    48   ar
    33    48    49   ar
    34    49    50   ar
    35    32    33    1
    36    33    34   am
    37    34    35    2
    38    34    37    1
    39    37    38    1
    40    38    39    1
    41    39    40   ar
    42    40    41   ar
    43    41    42   ar
    44    42    43   ar
    45     1    51    1
    46    51    52    1
    47    52    53   ar
    48    53    54   ar
    49    54    55   ar
    50    55    56   ar
    51    56    57   ar
    52    16    17   ar
    53    17    18   ar
    54    18    14   ar
    55    29    24    1
    56    50    45   ar
    57    43    39   ar
    58    57    52   ar
    59    11    12    1
    60     4     5    1
    61    33    36    1
@<TRIPOS>MOLECULE
*****
 57 61 0 0 0
SMALL
GASTEIGER

@<TRIPOS>ATOM
      1 C          62.2963   86.7403   11.3358 C.3     1  UNL1        0.0760
      2 C          62.8939   89.2670   11.4303 C.2     1  UNL1        0.2404
      3 O          62.6308   89.3842    9.9582 O.2     1  UNL1       -0.2733
      4 N          62.7266   87.9451   12.1191 N.am    1  UNL1       -0.3043
      5 H          62.8993   87.8682   13.0853 H       1  UNL1        0.1494
      6 C          63.3241   90.4717   12.2135 C.3     1  UNL1        0.1511
      7 N          64.1162   91.2586   16.0218 N.am    1  UNL1       -0.2567
      8 C          65.0880   92.0607   16.8356 C.3     1  UNL1        0.1168
      9 C          64.2061   91.2662   14.5245 C.2     1  UNL1        0.3046
     10 O          65.2678   92.0758   13.8410 O.2     1  UNL1       -0.2526
     11 N          63.2343   90.4641   13.7108 N.am    1  UNL1       -0.2824
     12 H          62.5374   89.9327   14.1594 H       1  UNL1        0.1514
     13 C          63.0545   90.4490   16.7054 C.3     1  UNL1        0.1413
     14 C          63.6051   86.6529   16.1121 C.ar    1  UNL1        0.0875
     15 N          63.6758   88.0760   15.6432 N.ar    1  UNL1       -0.2453
     16 C          63.1615   88.9534   16.7459 C.ar    1  UNL1        0.0858
     17 C          62.7731   88.0725   17.8962 C.ar    1  UNL1        0.0530
     18 S          63.0473   86.6507   17.5046 S.2     1  UNL1       -0.0705
     19 C          65.1550   85.5371   14.3508 C.3     1  UNL1        0.0069
     20 C          64.0196   85.4442   15.3265 C.3     1  UNL1        0.0465
     21 C          63.2986   84.1426   15.5166 C.3     1  UNL1        0.0069
     22 C          63.8443   91.6840   11.4995 C.3     1  UNL1        0.0463
     23 C          65.0776   91.5835   10.6517 C.3     1  UNL1        0.0745
     24 N          65.9485   92.7879   10.4488 N.3     1  UNL1       -0.2684
     25 C          65.4995   94.1303   10.9452 C.3     1  UNL1        0.1046
     26 C          66.3703   95.3346   10.7422 C.3     1  UNL1        0.1595
     27 O          67.6902   95.1965   10.0430 O.3     1  UNL1       -0.3508
     28 C          68.1391   93.8542    9.5466 C.3     1  UNL1        0.1595
     29 C          67.2683   92.6499    9.7495 C.3     1  UNL1        0.1046
     30 C          60.8381   86.4832   11.0961 C.3     1  UNL1        0.0216
     31 C          59.9897   87.5316   10.4397 C.3     1  UNL1        0.0217
     32 C          59.9469   87.6334    8.9437 C.3     1  UNL1        0.0792
     33 N          60.2492   88.9401    8.2720 N.am    1  UNL1       -0.2720
     34 C          59.3210   89.4765    7.2228 C.2     1  UNL1        0.4019
     35 O          58.0905   88.7062    6.8453 O.2     1  UNL1       -0.2264
     36 H          61.0569   89.4457    8.5197 H       1  UNL1        0.1527
     37 O          59.6234   90.7831    6.5510 O.3     1  UNL1       -0.4291
     38 C          59.1616   91.0282    5.1451 C.3     1  UNL1        0.2447
     39 C          60.0684   91.7140    4.1666 C.ar    1  UNL1        0.0714
     40 C          61.5286   91.4324    3.9709 C.ar    1  UNL1        0.1053
     41 N          62.0369   92.3462    2.8954 N.ar    1  UNL1       -0.2350
     42 C          60.8907   93.1925    2.4263 C.ar    1  UNL1        0.1343
     43 S          59.6741   92.8017    3.2120 S.2     1  UNL1       -0.0652
     44 C          59.6016   86.4287    8.1196 C.3     1  UNL1        0.0460
     45 C          60.6852   85.6633    7.4195 C.ar    1  UNL1       -0.0205
     46 C          60.3596   84.8399    6.2087 C.ar    1  UNL1       -0.0042
     47 C          61.4432   84.0746    5.5086 C.ar    1  UNL1       -0.0003
     48 C          62.8524   84.1327    6.0193 C.ar    1  UNL1       -0.0000
     49 C          63.1780   84.9560    7.2301 C.ar    1  UNL1       -0.0003
     50 C          62.0944   85.7213    7.9302 C.ar    1  UNL1       -0.0042
     51 C          63.3243   85.7927   10.7923 C.3     1  UNL1        0.0459
     52 C          63.2249   84.3262   11.0912 C.ar    1  UNL1       -0.0205
     53 C          62.4497   83.8551   12.2859 C.ar    1  UNL1       -0.0042
     54 C          62.3503   82.3886   12.5848 C.ar    1  UNL1       -0.0003
     55 C          63.0261   81.3931   11.6890 C.ar    1  UNL1       -0.0000
     56 C          63.8012   81.8642   10.4943 C.ar    1  UNL1       -0.0003
     57 C          63.9006   83.3308   10.1955 C.ar    1  UNL1       -0.0042
@<TRIPOS>BOND
     1    19    20    1
     2    20    21    1
     3    20    14    1
     4    14    15   ar
     5    15    16   ar
     6    16    13    1
     7    13     7    1
     8     7     8    1
     9     7     9   am
    10     9    10    2
    11     9    11   am
    12    11     6    1
    13     6    22    1
    14    22    23    1
    15    23    24    1
    16    24    25    1
    17    25    26    1
    18    26    27    1
    19    27    28    1
    20    28    29    1
    21     6     2    1
    22     2     3    2
    23     2     4   am
    24     4     1    1
    25     1    30    1
    26    30    31    1
    27    32    31    1
    28    32    44    1
    29    44    45    1
    30    45    46   ar
    31    46    47   ar
    32    47    48   ar
    33    48    49   ar
    34    49    50   ar
    35    32    33    1
    36    33    34   am
    37    34    35    2
    38    34    37    1
    39    37    38    1
    40    38    39    1
    41    39    40   ar
    42    40    41   ar
    43    41    42   ar
    44    42    43   ar
    45     1    51    1
    46    51    52    1
    47    52    53   ar
    48    53    54   ar
    49    54    55   ar
    50    55    56   ar
    51    56    57   ar
    52    16    17   ar
    53    17    18   ar
    54    18    14   ar
    55    29    24    1
    56    50    45   ar
    57    43    39   ar
    58    57    52   ar
    59    11    12    1
    60     4     5    1
    61    33    36    1
@<TRIPOS>MOLECULE
*****
 57 61 0 0 0
SMALL
GASTEIGER

@<TRIPOS>ATOM
      1 C          61.7993   88.6121   11.2207 C.3     1  UNL1        0.0760
      2 C          63.4428   90.1785   12.4838 C.2     1  UNL1        0.2404
      3 O          63.7477   90.8932   11.2007 O.2     1  UNL1       -0.2733
      4 N          62.4687   89.0379   12.4938 N.am    1  UNL1       -0.3043
      5 H          62.2686   88.5688   13.3359 H       1  UNL1        0.1494
      6 C          64.1121   90.6043   13.7568 C.3     1  UNL1        0.1511
      7 N          67.0307   93.2082   14.4287 N.am    1  UNL1       -0.2567
      8 C          68.4170   93.2349   15.0007 C.3     1  UNL1        0.1168
      9 C          66.2646   91.9196   14.3788 C.2     1  UNL1        0.3046
     10 O          66.8848   90.6576   14.9009 O.2     1  UNL1       -0.2526
     11 N          64.8782   91.8929   13.8067 N.am    1  UNL1       -0.2824
     12 H          64.4711   92.7212   13.4640 H       1  UNL1        0.1514
     13 C          66.4104   94.4702   13.9065 C.3     1  UNL1        0.1413
     14 C          67.0417   94.6939   10.0832 C.ar    1  UNL1        0.0875
     15 N          67.1276   93.9520   11.3841 N.ar    1  UNL1       -0.2453
     16 C          66.5311   94.8195   12.4527 C.ar    1  UNL1        0.0858
     17 C          66.0766   96.0974   11.8122 C.ar    1  UNL1        0.0530
     18 S          66.3921   96.0199   10.3478 S.2     1  UNL1       -0.0705
     19 C          68.3170   92.9285    8.6667 C.3     1  UNL1        0.0069
     20 C          67.5211   94.1971    8.7516 C.3     1  UNL1        0.0465
     21 C          67.2047   94.9689    7.5049 C.3     1  UNL1        0.0069
     22 C          64.0153   89.7415   14.9800 C.3     1  UNL1        0.0463
     23 C          64.5088   88.3255   14.9400 C.3     1  UNL1        0.0745
     24 N          63.7718   87.2530   15.6861 N.3     1  UNL1       -0.2684
     25 C          63.0907   87.5745   16.9834 C.3     1  UNL1        0.1046
     26 C          62.3538   86.5020   17.7294 C.3     1  UNL1        0.1595
     27 O          62.2978   85.1081   17.1782 O.3     1  UNL1       -0.3508
     28 C          62.9788   84.7866   15.8809 C.3     1  UNL1        0.1595
     29 C          63.7158   85.8591   15.1349 C.3     1  UNL1        0.1046
     30 C          62.3445   87.4548   10.4374 C.3     1  UNL1        0.0216
     31 C          62.0912   86.0505   10.8997 C.3     1  UNL1        0.0217
     32 C          63.0890   84.9710   10.6007 C.3     1  UNL1        0.0792
     33 N          63.5141   84.0223   11.6820 N.am    1  UNL1       -0.2720
     34 C          64.3746   82.8402   11.3470 C.2     1  UNL1        0.4019
     35 O          64.8099   82.6068    9.9307 O.2     1  UNL1       -0.2264
     36 H          63.2283   84.1755   12.6116 H       1  UNL1        0.1527
     37 O          64.7997   81.8915   12.4283 O.3     1  UNL1       -0.4291
     38 C          64.0810   81.8842   13.7449 C.3     1  UNL1        0.2447
     39 C          62.7260   81.2504   13.8562 C.ar    1  UNL1        0.0714
     40 C          61.4723   81.9265   14.3262 C.ar    1  UNL1        0.1053
     41 N          60.3583   80.9232   14.2775 N.ar    1  UNL1       -0.2350
     42 C          60.9236   79.6269   13.7774 C.ar    1  UNL1        0.1343
     43 S          62.3869   79.8292   13.5170 S.2     1  UNL1       -0.0652
     44 C          63.6615   84.8403    9.2205 C.3     1  UNL1        0.0460
     45 C          62.7479   84.7754    8.0325 C.ar    1  UNL1       -0.0205
     46 C          61.3004   85.1405    8.1788 C.ar    1  UNL1       -0.0042
     47 C          60.3869   85.0756    6.9908 C.ar    1  UNL1       -0.0003
     48 C          60.9209   84.6457    5.6567 C.ar    1  UNL1       -0.0000
     49 C          62.3684   84.2806    5.5104 C.ar    1  UNL1       -0.0003
     50 C          63.2819   84.3455    6.6984 C.ar    1  UNL1       -0.0042
     51 C          60.5847   89.3434   10.7309 C.3     1  UNL1        0.0459
     52 C          60.0058   89.0194    9.3857 C.ar    1  UNL1       -0.0205
     53 C          60.2329   89.9465    8.2285 C.ar    1  UNL1       -0.0042
     54 C          59.6540   89.6225    6.8832 C.ar    1  UNL1       -0.0003
     55 C          58.8480   88.3714    6.6950 C.ar    1  UNL1       -0.0000
     56 C          58.6210   87.4444    7.8522 C.ar    1  UNL1       -0.0003
     57 C          59.1999   87.7684    9.1976 C.ar    1  UNL1       -0.0042
@<TRIPOS>BOND
     1    19    20    1
     2    20    21    1
     3    20    14    1
     4    14    15   ar
     5    15    16   ar
     6    16    13    1
     7    13     7    1
     8     7     8    1
     9     7     9   am
    10     9    10    2
    11     9    11   am
    12    11     6    1
    13     6    22    1
    14    22    23    1
    15    23    24    1
    16    24    25    1
    17    25    26    1
    18    26    27    1
    19    27    28    1
    20    28    29    1
    21     6     2    1
    22     2     3    2
    23     2     4   am
    24     4     1    1
    25     1    30    1
    26    30    31    1
    27    32    31    1
    28    32    44    1
    29    44    45    1
    30    45    46   ar
    31    46    47   ar
    32    47    48   ar
    33    48    49   ar
    34    49    50   ar
    35    32    33    1
    36    33    34   am
    37    34    35    2
    38    34    37    1
    39    37    38    1
    40    38    39    1
    41    39    40   ar
    42    40    41   ar
    43    41    42   ar
    44    42    43   ar
    45     1    51    1
    46    51    52    1
    47    52    53   ar
    48    53    54   ar
    49    54    55   ar
    50    55    56   ar
    51    56    57   ar
    52    16    17   ar
    53    17    18   ar
    54    18    14   ar
    55    29    24    1
    56    50    45   ar
    57    43    39   ar
    58    57    52   ar
    59    11    12    1
    60     4     5    1
    61    33    36    1
@<TRIPOS>MOLECULE
*****
 57 61 0 0 0
SMALL
GASTEIGER

@<TRIPOS>ATOM
      1 C          62.2712   86.3366   11.1035 C.3     1  UNL1        0.0760
      2 C          62.5562   88.8413   11.7323 C.2     1  UNL1        0.2404
      3 O          61.9584   88.5707   13.0811 O.2     1  UNL1       -0.2733
      4 N          62.7126   87.7243   10.7435 N.am    1  UNL1       -0.3043
      5 H          63.1050   87.9019    9.8582 H       1  UNL1        0.1494
      6 C          62.9977   90.2289   11.3723 C.3     1  UNL1        0.1511
      7 N          65.7432   91.7782   13.7829 N.am    1  UNL1       -0.2567
      8 C          65.8619   92.2815   15.1909 C.3     1  UNL1        0.1168
      9 C          64.4298   91.2552   13.2816 C.2     1  UNL1        0.3046
     10 O          63.2350   91.2356   14.1883 O.2     1  UNL1       -0.2526
     11 N          64.3111   90.7519   11.8736 N.am    1  UNL1       -0.2824
     12 H          65.0953   90.7648   11.2785 H       1  UNL1        0.1514
     13 C          66.9380   91.7978   12.8763 C.3     1  UNL1        0.1413
     14 C          66.7058   94.7015   10.3110 C.ar    1  UNL1        0.0875
     15 N          66.4733   94.1449   11.6844 N.ar    1  UNL1       -0.2453
     16 C          66.9733   92.7308   11.7022 C.ar    1  UNL1        0.0858
     17 C          67.5148   92.4134   10.3399 C.ar    1  UNL1        0.0530
     18 S          67.3495   93.6314    9.4800 S.2     1  UNL1       -0.0705
     19 C          65.2680   96.8533   10.5399 C.3     1  UNL1        0.0069
     20 C          66.3560   96.0852    9.8496 C.3     1  UNL1        0.0465
     21 C          67.0941   96.7009    8.6980 C.3     1  UNL1        0.0069
     22 C          62.1256   91.0936   10.5109 C.3     1  UNL1        0.0463
     23 C          60.6447   90.8589   10.4684 C.3     1  UNL1        0.0745
     24 N          60.0762   89.8187    9.5491 N.3     1  UNL1       -0.2684
     25 C          60.1186   90.0264    8.0642 C.3     1  UNL1        0.1046
     26 C          59.5501   88.9863    7.1450 C.3     1  UNL1        0.1595
     27 O          58.9393   87.7386    7.7107 O.3     1  UNL1       -0.3508
     28 C          58.8970   87.5309    9.1956 C.3     1  UNL1        0.1595
     29 C          59.4654   88.5710   10.1148 C.3     1  UNL1        0.1046
     30 C          62.7794   85.6896   12.3576 C.3     1  UNL1        0.0216
     31 C          64.0134   84.8379   12.3151 C.3     1  UNL1        0.0217
     32 C          64.5480   84.2285   13.5773 C.3     1  UNL1        0.0792
     33 N          64.3888   82.7578   13.8260 N.am    1  UNL1       -0.2720
     34 C          63.0744   82.2161   14.3045 C.2     1  UNL1        0.4019
     35 O          61.9193   83.1450   14.5343 O.2     1  UNL1       -0.2264
     36 H          65.1470   82.1482   13.6751 H       1  UNL1        0.1527
     37 O          62.9152   80.7454   14.5532 O.3     1  UNL1       -0.4291
     38 C          62.2219   79.8841   13.5396 C.3     1  UNL1        0.2447
     39 C          62.5641   80.0142   12.0850 C.ar    1  UNL1        0.0714
     40 C          62.9475   81.2811   11.3793 C.ar    1  UNL1        0.1053
     41 N          63.2034   80.9502    9.9388 N.ar    1  UNL1       -0.2350
     42 C          62.9783   79.4787    9.7542 C.ar    1  UNL1        0.1343
     43 S          62.5832   78.9003   11.0806 S.2     1  UNL1       -0.0652
     44 C          65.2418   85.0897   14.5906 C.3     1  UNL1        0.0460
     45 C          64.4534   86.0709   15.4067 C.ar    1  UNL1       -0.0205
     46 C          63.6288   85.5920   16.5645 C.ar    1  UNL1       -0.0042
     47 C          62.8405   86.5731   17.3805 C.ar    1  UNL1       -0.0003
     48 C          62.8768   88.0332   17.0386 C.ar    1  UNL1       -0.0000
     49 C          63.7014   88.5121   15.8808 C.ar    1  UNL1       -0.0003
     50 C          64.4897   87.5310   15.0648 C.ar    1  UNL1       -0.0042
     51 C          61.3215   85.5960   10.2092 C.3     1  UNL1        0.0459
     52 C          61.7124   85.2828    8.7954 C.ar    1  UNL1       -0.0205
     53 C          63.1513   85.0332    8.4529 C.ar    1  UNL1       -0.0042
     54 C          63.5423   84.7199    7.0390 C.ar    1  UNL1       -0.0003
     55 C          62.4943   84.6563    5.9676 C.ar    1  UNL1       -0.0000
     56 C          61.0554   84.9059    6.3102 C.ar    1  UNL1       -0.0003
     57 C          60.6645   85.2192    7.7241 C.ar    1  UNL1       -0.0042
@<TRIPOS>BOND
     1    19    20    1
     2    20    21    1
     3    20    14    1
     4    14    15   ar
     5    15    16   ar
     6    16    13    1
     7    13     7    1
     8     7     8    1
     9     7     9   am
    10     9    10    2
    11     9    11   am
    12    11     6    1
    13     6    22    1
    14    22    23    1
    15    23    24    1
    16    24    25    1
    17    25    26    1
    18    26    27    1
    19    27    28    1
    20    28    29    1
    21     6     2    1
    22     2     3    2
    23     2     4   am
    24     4     1    1
    25     1    30    1
    26    30    31    1
    27    32    31    1
    28    32    44    1
    29    44    45    1
    30    45    46   ar
    31    46    47   ar
    32    47    48   ar
    33    48    49   ar
    34    49    50   ar
    35    32    33    1
    36    33    34   am
    37    34    35    2
    38    34    37    1
    39    37    38    1
    40    38    39    1
    41    39    40   ar
    42    40    41   ar
    43    41    42   ar
    44    42    43   ar
    45     1    51    1
    46    51    52    1
    47    52    53   ar
    48    53    54   ar
    49    54    55   ar
    50    55    56   ar
    51    56    57   ar
    52    16    17   ar
    53    17    18   ar
    54    18    14   ar
    55    29    24    1
    56    50    45   ar
    57    43    39   ar
    58    57    52   ar
    59    11    12    1
    60     4     5    1
    61    33    36    1
@<TRIPOS>MOLECULE
*****
 57 61 0 0 0
SMALL
GASTEIGER

@<TRIPOS>ATOM
      1 C          62.7430   85.5657    9.8869 C.3     1  UNL1        0.0760
      2 C          61.0604   87.4823    9.3917 C.2     1  UNL1        0.2404
      3 O          59.9741   86.4717    9.1710 O.2     1  UNL1       -0.2733
      4 N          62.4448   87.0293    9.7496 N.am    1  UNL1       -0.3043
      5 H          63.1577   87.6927    9.8944 H       1  UNL1        0.1494
      6 C          60.7622   88.9459    9.2544 C.3     1  UNL1        0.1511
      7 N          62.8342   90.7242   12.1344 N.am    1  UNL1       -0.2567
      8 C          63.2242   90.4865   13.5631 C.3     1  UNL1        0.1168
      9 C          61.9932   89.7162   11.4087 C.2     1  UNL1        0.3046
     10 O          61.5421   88.4704   12.1119 O.2     1  UNL1       -0.2526
     11 N          61.6033   89.9540    9.9800 N.am    1  UNL1       -0.2824
     12 H          61.8993   90.7717    9.5185 H       1  UNL1        0.1514
     13 C          63.2853   91.9700   11.4313 C.3     1  UNL1        0.1413
     14 C          66.9179   92.9323   10.4598 C.ar    1  UNL1        0.0875
     15 N          65.4775   92.7207   10.0986 N.ar    1  UNL1       -0.2453
     16 C          64.7477   92.2900   11.3363 C.ar    1  UNL1        0.0858
     17 C          65.7371   92.2354   12.4624 C.ar    1  UNL1        0.0530
     18 S          67.0784   92.6324   11.9207 S.2     1  UNL1       -0.0705
     19 C          69.0892   92.4052    9.1341 C.3     1  UNL1        0.0069
     20 C          68.0067   93.3674    9.5243 C.3     1  UNL1        0.0465
     21 C          68.0130   94.7648    8.9789 C.3     1  UNL1        0.0069
     22 C          59.6230   89.4016    8.3914 C.3     1  UNL1        0.0463
     23 C          59.6415   89.1249    6.9173 C.3     1  UNL1        0.0745
     24 N          59.2771   90.2085    5.9461 N.3     1  UNL1       -0.2684
     25 C          60.3520   90.9253    5.1841 C.3     1  UNL1        0.1046
     26 C          59.9876   92.0088    4.2130 C.3     1  UNL1        0.1595
     27 O          58.5482   92.3756    4.0040 O.3     1  UNL1       -0.3508
     28 C          57.4733   91.6589    4.7660 C.3     1  UNL1        0.1595
     29 C          57.8377   90.5753    5.7371 C.3     1  UNL1        0.1046
     30 C          62.3782   84.8411   11.1486 C.3     1  UNL1        0.0216
     31 C          62.6494   85.4731   12.4816 C.3     1  UNL1        0.0217
     32 C          63.7286   84.9232   13.3666 C.3     1  UNL1        0.0792
     33 N          63.9860   83.4460   13.4061 N.am    1  UNL1       -0.2720
     34 C          63.1039   82.5526   14.2270 C.2     1  UNL1        0.4019
     35 O          61.9644   83.1365   15.0084 O.2     1  UNL1       -0.2264
     36 H          64.7340   83.0628   12.8933 H       1  UNL1        0.1527
     37 O          63.3613   81.0754   14.2665 O.3     1  UNL1       -0.4291
     38 C          62.5152   80.1445   13.4496 C.3     1  UNL1        0.2447
     39 C          62.7186   80.0529   11.9663 C.ar    1  UNL1        0.0714
     40 C          63.0789   81.1877   11.0539 C.ar    1  UNL1        0.1053
     41 N          63.1804   80.6465    9.6586 N.ar    1  UNL1       -0.2350
     42 C          62.8828   79.1772    9.7086 C.ar    1  UNL1        0.1343
     43 S          62.5973   78.8103   11.1348 S.2     1  UNL1       -0.0652
     44 C          64.5502   85.8506   14.2122 C.3     1  UNL1        0.0460
     45 C          63.9469   86.4899   15.4277 C.ar    1  UNL1       -0.0205
     46 C          63.8574   87.9842   15.5229 C.ar    1  UNL1       -0.0042
     47 C          63.2542   88.6234   16.7384 C.ar    1  UNL1       -0.0003
     48 C          62.7405   87.7684   17.8587 C.ar    1  UNL1       -0.0000
     49 C          62.8301   86.2741   17.7635 C.ar    1  UNL1       -0.0003
     50 C          63.4333   85.6349   16.5480 C.ar    1  UNL1       -0.0042
     51 C          63.4060   84.8266    8.7625 C.3     1  UNL1        0.0459
     52 C          62.6914   84.6521    7.4553 C.ar    1  UNL1       -0.0205
     53 C          63.4753   84.5331    6.1820 C.ar    1  UNL1       -0.0042
     54 C          62.7607   84.3585    4.8749 C.ar    1  UNL1       -0.0003
     55 C          61.2620   84.3029    4.8409 C.ar    1  UNL1       -0.0000
     56 C          60.4781   84.4219    6.1142 C.ar    1  UNL1       -0.0003
     57 C          61.1928   84.5965    7.4215 C.ar    1  UNL1       -0.0042
@<TRIPOS>BOND
     1    19    20    1
     2    20    21    1
     3    20    14    1
     4    14    15   ar
     5    15    16   ar
     6    16    13    1
     7    13     7    1
     8     7     8    1
     9     7     9   am
    10     9    10    2
    11     9    11   am
    12    11     6    1
    13     6    22    1
    14    22    23    1
    15    23    24    1
    16    24    25    1
    17    25    26    1
    18    26    27    1
    19    27    28    1
    20    28    29    1
    21     6     2    1
    22     2     3    2
    23     2     4   am
    24     4     1    1
    25     1    30    1
    26    30    31    1
    27    32    31    1
    28    32    44    1
    29    44    45    1
    30    45    46   ar
    31    46    47   ar
    32    47    48   ar
    33    48    49   ar
    34    49    50   ar
    35    32    33    1
    36    33    34   am
    37    34    35    2
    38    34    37    1
    39    37    38    1
    40    38    39    1
    41    39    40   ar
    42    40    41   ar
    43    41    42   ar
    44    42    43   ar
    45     1    51    1
    46    51    52    1
    47    52    53   ar
    48    53    54   ar
    49    54    55   ar
    50    55    56   ar
    51    56    57   ar
    52    16    17   ar
    53    17    18   ar
    54    18    14   ar
    55    29    24    1
    56    50    45   ar
    57    43    39   ar
    58    57    52   ar
    59    11    12    1
    60     4     5    1
    61    33    36    1
@<TRIPOS>MOLECULE
*****
 57 61 0 0 0
SMALL
GASTEIGER

@<TRIPOS>ATOM
      1 C          61.9961   88.0885   11.2813 C.3     1  UNL1        0.0760
      2 C          63.4310   89.8599   12.5276 C.2     1  UNL1        0.2404
      3 O          63.3595   90.7604   11.3301 O.2     1  UNL1       -0.2733
      4 N          62.7493   88.5240   12.5032 N.am    1  UNL1       -0.3043
      5 H          62.7963   87.9330   13.2892 H       1  UNL1        0.1494
      6 C          64.1843   90.2953   13.7494 C.3     1  UNL1        0.1511
      7 N          66.9770   93.0475   14.3625 N.am    1  UNL1       -0.2567
      8 C          68.3530   93.1554   14.9498 C.3     1  UNL1        0.1168
      9 C          66.2687   91.7253   14.3496 C.2     1  UNL1        0.3046
     10 O          66.9363   90.5111   14.9240 O.2     1  UNL1       -0.2526
     11 N          64.8927   91.6174   13.7623 N.am    1  UNL1       -0.2824
     12 H          64.4545   92.4144   13.3853 H       1  UNL1        0.1514
     13 C          66.3094   94.2617   13.7881 C.3     1  UNL1        0.1413
     14 C          67.1651   94.5094   10.0103 C.ar    1  UNL1        0.0875
     15 N          67.1679   93.7564   11.3076 N.ar    1  UNL1       -0.2453
     16 C          66.5182   94.6212   12.3469 C.ar    1  UNL1        0.0858
     17 C          66.1139   95.9086   11.6918 C.ar    1  UNL1        0.0530
     18 S          66.5137   95.8396   10.2477 S.2     1  UNL1       -0.0705
     19 C          67.4871   94.8068    7.4495 C.3     1  UNL1        0.0069
     20 C          67.7169   94.0184    8.7047 C.3     1  UNL1        0.0465
     21 C          68.4984   92.7391    8.6544 C.3     1  UNL1        0.0069
     22 C          64.2291   89.4086   14.9585 C.3     1  UNL1        0.0463
     23 C          64.5124   87.9437   14.8041 C.3     1  UNL1        0.0745
     24 N          63.8067   86.9474   15.6756 N.3     1  UNL1       -0.2684
     25 C          63.0493   87.4118   16.8842 C.3     1  UNL1        0.1046
     26 C          62.3437   86.4155   17.7556 C.3     1  UNL1        0.1595
     27 O          62.3954   84.9548   17.4185 O.3     1  UNL1       -0.3508
     28 C          63.1529   84.4904   16.2100 C.3     1  UNL1        0.1595
     29 C          63.8585   85.4867   15.3385 C.3     1  UNL1        0.1046
     30 C          60.7034   88.7577   10.9190 C.3     1  UNL1        0.0216
     31 C          59.6887   88.0291   10.0886 C.3     1  UNL1        0.0217
     32 C          59.8522   87.9545    8.5994 C.3     1  UNL1        0.0792
     33 N          60.4088   89.1263    7.8464 N.am    1  UNL1       -0.2720
     34 C          59.6129   89.7537    6.7404 C.2     1  UNL1        0.4019
     35 O          58.2606   89.2092    6.3875 O.2     1  UNL1       -0.2264
     36 H          61.2965   89.4836    8.0780 H       1  UNL1        0.1527
     37 O          60.1695   90.9255    5.9874 O.3     1  UNL1       -0.4291
     38 C          59.3996   91.5163    4.8437 C.3     1  UNL1        0.2447
     39 C          60.1290   92.0849    3.6627 C.ar    1  UNL1        0.0714
     40 C          59.5044   92.7989    2.5008 C.ar    1  UNL1        0.1053
     41 N          60.6005   93.1946    1.5563 N.ar    1  UNL1       -0.2350
     42 C          61.9025   92.7252    2.1345 C.ar    1  UNL1        0.1343
     43 S          61.6111   92.0393    3.4363 S.2     1  UNL1       -0.0652
     44 C          59.4592   86.7081    7.8632 C.3     1  UNL1        0.0460
     45 C          60.5149   85.8229    7.2700 C.ar    1  UNL1       -0.0205
     46 C          61.9361   85.9342    7.7367 C.ar    1  UNL1       -0.0042
     47 C          62.9917   85.0490    7.1434 C.ar    1  UNL1       -0.0003
     48 C          62.6262   84.0525    6.0835 C.ar    1  UNL1       -0.0000
     49 C          61.2051   83.9412    5.6169 C.ar    1  UNL1       -0.0003
     50 C          60.1494   84.8264    6.2101 C.ar    1  UNL1       -0.0042
     51 C          62.5355   86.9839   10.4217 C.3     1  UNL1        0.0459
     52 C          62.6887   85.6021   10.9848 C.ar    1  UNL1       -0.0205
     53 C          63.4461   84.5592   10.2175 C.ar    1  UNL1       -0.0042
     54 C          63.5993   83.1775   10.7806 C.ar    1  UNL1       -0.0003
     55 C          62.9950   82.8385   12.1111 C.ar    1  UNL1       -0.0000
     56 C          62.2376   83.8813   12.8784 C.ar    1  UNL1       -0.0003
     57 C          62.0844   85.2632   12.3152 C.ar    1  UNL1       -0.0042
@<TRIPOS>BOND
     1    19    20    1
     2    20    21    1
     3    20    14    1
     4    14    15   ar
     5    15    16   ar
     6    16    13    1
     7    13     7    1
     8     7     8    1
     9     7     9   am
    10     9    10    2
    11     9    11   am
    12    11     6    1
    13     6    22    1
    14    22    23    1
    15    23    24    1
    16    24    25    1
    17    25    26    1
    18    26    27    1
    19    27    28    1
    20    28    29    1
    21     6     2    1
    22     2     3    2
    23     2     4   am
    24     4     1    1
    25     1    30    1
    26    30    31    1
    27    32    31    1
    28    32    44    1
    29    44    45    1
    30    45    46   ar
    31    46    47   ar
    32    47    48   ar
    33    48    49   ar
    34    49    50   ar
    35    32    33    1
    36    33    34   am
    37    34    35    2
    38    34    37    1
    39    37    38    1
    40    38    39    1
    41    39    40   ar
    42    40    41   ar
    43    41    42   ar
    44    42    43   ar
    45     1    51    1
    46    51    52    1
    47    52    53   ar
    48    53    54   ar
    49    54    55   ar
    50    55    56   ar
    51    56    57   ar
    52    16    17   ar
    53    17    18   ar
    54    18    14   ar
    55    29    24    1
    56    50    45   ar
    57    43    39   ar
    58    57    52   ar
    59    11    12    1
    60     4     5    1
    61    33    36    1
@<TRIPOS>MOLECULE
*****
 57 61 0 0 0
SMALL
GASTEIGER

@<TRIPOS>ATOM
      1 C          62.6997   85.4542    9.8960 C.3     1  UNL1        0.0760
      2 C          61.1444   87.4701    9.3789 C.2     1  UNL1        0.2404
      3 O          60.0157   86.5253    9.0903 O.2     1  UNL1       -0.2733
      4 N          62.4864   86.9346    9.7817 N.am    1  UNL1       -0.3043
      5 H          63.2272   87.5547    9.9711 H       1  UNL1        0.1494
      6 C          60.9312   88.9504    9.2646 C.3     1  UNL1        0.1511
      7 N          62.8429   90.7579   12.2359 N.am    1  UNL1       -0.2567
      8 C          62.9568   90.6723   13.7291 C.3     1  UNL1        0.1168
      9 C          61.9440   89.8114   11.4968 C.2     1  UNL1        0.3046
     10 O          61.1591   88.7793   12.2510 O.2     1  UNL1       -0.2526
     11 N          61.8301   89.8969   10.0036 N.am    1  UNL1       -0.2824
     12 H          62.3453   90.5743    9.5087 H       1  UNL1        0.1514
     13 C          63.6278   91.7899   11.4818 C.3     1  UNL1        0.1413
     14 C          66.6980   92.8375   13.6130 C.ar    1  UNL1        0.0875
     15 N          65.4333   92.0506   13.4357 N.ar    1  UNL1       -0.2453
     16 C          64.8826   92.3590   12.0748 C.ar    1  UNL1        0.0858
     17 C          65.8069   93.3363   11.4113 C.ar    1  UNL1        0.0530
     18 S          66.9289   93.6321   12.3619 S.2     1  UNL1       -0.0705
     19 C          69.0681   92.7659   14.6748 C.3     1  UNL1        0.0069
     20 C          67.5774   92.8308   14.8282 C.3     1  UNL1        0.0465
     21 C          66.9660   92.8891   16.1967 C.3     1  UNL1        0.0069
     22 C          59.8191   89.4844    8.4112 C.3     1  UNL1        0.0463
     23 C          59.7865   89.1773    6.9434 C.3     1  UNL1        0.0745
     24 N          59.3501   90.2289    5.9667 N.3     1  UNL1       -0.2684
     25 C          57.8936   90.5546    5.8162 C.3     1  UNL1        0.1046
     26 C          57.4573   91.6061    4.8396 C.3     1  UNL1        0.1595
     27 O          58.4774   92.3319    4.0133 O.3     1  UNL1       -0.3508
     28 C          59.9338   92.0062    4.1638 C.3     1  UNL1        0.1595
     29 C          60.3701   90.9547    5.1404 C.3     1  UNL1        0.1046
     30 C          62.2604   84.7264   11.1318 C.3     1  UNL1        0.0216
     31 C          62.6274   85.2579   12.4856 C.3     1  UNL1        0.0217
     32 C          63.7082   84.5923   13.2849 C.3     1  UNL1        0.0792
     33 N          63.8822   83.1039   13.2177 N.am    1  UNL1       -0.2720
     34 C          63.2539   82.2275   14.2604 C.2     1  UNL1        0.4019
     35 O          62.4516   82.8395   15.3703 O.2     1  UNL1       -0.2264
     36 H          64.4088   82.7022   12.4893 H       1  UNL1        0.1527
     37 O          63.4279   80.7392   14.1932 O.3     1  UNL1       -0.4291
     38 C          62.5024   79.9132   13.3500 C.3     1  UNL1        0.2447
     39 C          62.6933   79.8550   11.8633 C.ar    1  UNL1        0.0714
     40 C          62.9924   81.0196   10.9665 C.ar    1  UNL1        0.1053
     41 N          63.1027   80.5063    9.5614 N.ar    1  UNL1       -0.2350
     42 C          62.8718   79.0245    9.5897 C.ar    1  UNL1        0.1343
     43 S          62.6188   78.6219   11.0124 S.2     1  UNL1       -0.0652
     44 C          64.6150   85.4150   14.1513 C.3     1  UNL1        0.0460
     45 C          64.0401   86.2587   15.2503 C.ar    1  UNL1       -0.0205
     46 C          63.4111   85.6065   16.4457 C.ar    1  UNL1       -0.0042
     47 C          62.8362   86.4502   17.5446 C.ar    1  UNL1       -0.0003
     48 C          62.8903   87.9461   17.4481 C.ar    1  UNL1       -0.0000
     49 C          63.5193   88.5983   16.2528 C.ar    1  UNL1       -0.0003
     50 C          64.0942   87.7546   15.1539 C.ar    1  UNL1       -0.0042
     51 C          63.3523   84.7017    8.7745 C.3     1  UNL1        0.0459
     52 C          62.6617   84.5846    7.4481 C.ar    1  UNL1       -0.0205
     53 C          61.1645   84.5161    7.3855 C.ar    1  UNL1       -0.0042
     54 C          60.4739   84.3990    6.0591 C.ar    1  UNL1       -0.0003
     55 C          61.2805   84.3504    4.7952 C.ar    1  UNL1       -0.0000
     56 C          62.7776   84.4190    4.8579 C.ar    1  UNL1       -0.0003
     57 C          63.4682   84.5361    6.1843 C.ar    1  UNL1       -0.0042
@<TRIPOS>BOND
     1    19    20    1
     2    20    21    1
     3    20    14    1
     4    14    15   ar
     5    15    16   ar
     6    16    13    1
     7    13     7    1
     8     7     8    1
     9     7     9   am
    10     9    10    2
    11     9    11   am
    12    11     6    1
    13     6    22    1
    14    22    23    1
    15    23    24    1
    16    24    25    1
    17    25    26    1
    18    26    27    1
    19    27    28    1
    20    28    29    1
    21     6     2    1
    22     2     3    2
    23     2     4   am
    24     4     1    1
    25     1    30    1
    26    30    31    1
    27    32    31    1
    28    32    44    1
    29    44    45    1
    30    45    46   ar
    31    46    47   ar
    32    47    48   ar
    33    48    49   ar
    34    49    50   ar
    35    32    33    1
    36    33    34   am
    37    34    35    2
    38    34    37    1
    39    37    38    1
    40    38    39    1
    41    39    40   ar
    42    40    41   ar
    43    41    42   ar
    44    42    43   ar
    45     1    51    1
    46    51    52    1
    47    52    53   ar
    48    53    54   ar
    49    54    55   ar
    50    55    56   ar
    51    56    57   ar
    52    16    17   ar
    53    17    18   ar
    54    18    14   ar
    55    29    24    1
    56    50    45   ar
    57    43    39   ar
    58    57    52   ar
    59    11    12    1
    60     4     5    1
    61    33    36    1
@<TRIPOS>MOLECULE
*****
 57 61 0 0 0
SMALL
GASTEIGER

@<TRIPOS>ATOM
      1 C          61.8440   89.5592   10.9729 C.3     1  UNL1        0.0760
      2 C          61.7509   86.9878   11.3329 C.2     1  UNL1        0.2404
      3 O          60.4290   87.1328   12.0268 O.2     1  UNL1       -0.2733
      4 N          62.4584   88.2009   10.8060 N.am    1  UNL1       -0.3043
      5 H          63.3261   88.1058   10.3505 H       1  UNL1        0.1494
      6 C          62.3654   85.6297   11.1659 C.3     1  UNL1        0.1511
      7 N          62.7016   82.2407   13.2035 N.am    1  UNL1       -0.2567
      8 C          63.0880   80.8104   12.9693 C.3     1  UNL1        0.1168
      9 C          62.7267   83.2200   12.0676 C.2     1  UNL1        0.3046
     10 O          63.1381   82.7691   10.6974 O.2     1  UNL1       -0.2526
     11 N          62.3403   84.6503   12.3018 N.am    1  UNL1       -0.2824
     12 H          62.0703   84.9463   13.2011 H       1  UNL1        0.1514
     13 C          62.2902   82.6917   14.5736 C.3     1  UNL1        0.1413
     14 C          63.2284   85.9579   16.4489 C.ar    1  UNL1        0.0875
     15 N          62.2311   84.9008   16.0775 N.ar    1  UNL1       -0.2453
     16 C          62.9160   83.9122   15.1809 C.ar    1  UNL1        0.0858
     17 C          64.3364   84.3584   14.9983 C.ar    1  UNL1        0.0530
     18 S          64.5295   85.6228   15.7819 S.2     1  UNL1       -0.0705
     19 C          62.6237   86.9387   18.7775 C.3     1  UNL1        0.0069
     20 C          62.9699   87.1424   17.3323 C.3     1  UNL1        0.0465
     21 C          63.0575   88.5304   16.7704 C.3     1  UNL1        0.0069
     22 C          63.0049   85.2508    9.8630 C.3     1  UNL1        0.0463
     23 C          62.6736   86.0141    8.6150 C.3     1  UNL1        0.0745
     24 N          62.1845   85.2861    7.3981 N.3     1  UNL1       -0.2684
     25 C          63.1549   84.8685    6.3333 C.3     1  UNL1        0.1046
     26 C          62.6658   84.1405    5.1165 C.3     1  UNL1        0.1595
     27 O          61.2061   83.8301    4.9644 O.3     1  UNL1       -0.3508
     28 C          60.2357   84.2478    6.0292 C.3     1  UNL1        0.1595
     29 C          60.7248   84.9757    7.2460 C.3     1  UNL1        0.1046
     30 C          62.6294   90.6638   11.6154 C.3     1  UNL1        0.0216
     31 C          63.8789   91.1743   10.9611 C.3     1  UNL1        0.0217
     32 C          64.9243   91.8706   11.7812 C.3     1  UNL1        0.0792
     33 N          64.6252   92.2690   13.1960 N.am    1  UNL1       -0.2720
     34 C          64.6420   91.2376   14.2851 C.2     1  UNL1        0.4019
     35 O          64.9578   89.8079   13.9593 O.2     1  UNL1       -0.2264
     36 H          64.4179   93.2074   13.4098 H       1  UNL1        0.1527
     37 O          64.3429   91.6360   15.7000 O.3     1  UNL1       -0.4291
     38 C          65.3113   92.4948   16.4580 C.3     1  UNL1        0.2447
     39 C          66.6995   92.7051   15.9303 C.ar    1  UNL1        0.0714
     40 C          67.0842   93.6084   14.7962 C.ar    1  UNL1        0.1053
     41 N          68.5693   93.5107   14.6090 N.ar    1  UNL1       -0.2350
     42 C          69.1024   92.5470   15.6273 C.ar    1  UNL1        0.1343
     43 S          67.9469   92.0492   16.4439 S.2     1  UNL1       -0.0652
     44 C          66.2687   92.1684   11.1864 C.3     1  UNL1        0.0460
     45 C          66.5608   93.5340   10.6388 C.ar    1  UNL1       -0.0205
     46 C          66.0605   94.7525   11.3564 C.ar    1  UNL1       -0.0042
     47 C          66.3526   96.1181   10.8088 C.ar    1  UNL1       -0.0003
     48 C          67.1450   96.2652    9.5437 C.ar    1  UNL1       -0.0000
     49 C          67.6453   95.0467    8.8262 C.ar    1  UNL1       -0.0003
     50 C          67.3532   93.6811    9.3737 C.ar    1  UNL1       -0.0042
     51 C          60.4442   89.8127   10.4974 C.3     1  UNL1        0.0459
     52 C          59.9777   89.2321    9.1953 C.ar    1  UNL1       -0.0205
     53 C          60.0747   90.0411    7.9359 C.ar    1  UNL1       -0.0042
     54 C          59.6083   89.4605    6.6338 C.ar    1  UNL1       -0.0003
     55 C          59.0448   88.0710    6.5912 C.ar    1  UNL1       -0.0000
     56 C          58.9478   87.2621    7.8506 C.ar    1  UNL1       -0.0003
     57 C          59.4142   87.8427    9.1527 C.ar    1  UNL1       -0.0042
@<TRIPOS>BOND
     1    19    20    1
     2    20    21    1
     3    20    14    1
     4    14    15   ar
     5    15    16   ar
     6    16    13    1
     7    13     7    1
     8     7     8    1
     9     7     9   am
    10     9    10    2
    11     9    11   am
    12    11     6    1
    13     6    22    1
    14    22    23    1
    15    23    24    1
    16    24    25    1
    17    25    26    1
    18    26    27    1
    19    27    28    1
    20    28    29    1
    21     6     2    1
    22     2     3    2
    23     2     4   am
    24     4     1    1
    25     1    30    1
    26    30    31    1
    27    32    31    1
    28    32    44    1
    29    44    45    1
    30    45    46   ar
    31    46    47   ar
    32    47    48   ar
    33    48    49   ar
    34    49    50   ar
    35    32    33    1
    36    33    34   am
    37    34    35    2
    38    34    37    1
    39    37    38    1
    40    38    39    1
    41    39    40   ar
    42    40    41   ar
    43    41    42   ar
    44    42    43   ar
    45     1    51    1
    46    51    52    1
    47    52    53   ar
    48    53    54   ar
    49    54    55   ar
    50    55    56   ar
    51    56    57   ar
    52    16    17   ar
    53    17    18   ar
    54    18    14   ar
    55    29    24    1
    56    50    45   ar
    57    43    39   ar
    58    57    52   ar
    59    11    12    1
    60     4     5    1
    61    33    36    1
@<TRIPOS>MOLECULE
*****
 57 61 0 0 0
SMALL
GASTEIGER

@<TRIPOS>ATOM
      1 C          62.7055   85.6134    9.6345 C.3     1  UNL1        0.0760
      2 C          60.9360   87.4482    9.1323 C.2     1  UNL1        0.2404
      3 O          59.8972   86.3876    8.9175 O.2     1  UNL1       -0.2733
      4 N          62.3401   87.0611    9.4908 N.am    1  UNL1       -0.3043
      5 H          63.0219   87.7572    9.6317 H       1  UNL1        0.1494
      6 C          60.5706   88.8958    8.9885 C.3     1  UNL1        0.1511
      7 N          62.6215   90.8990   11.7328 N.am    1  UNL1       -0.2567
      8 C          62.9755   90.7916   13.1864 C.3     1  UNL1        0.1168
      9 C          61.7730   89.8437   11.0875 C.2     1  UNL1        0.3046
     10 O          61.2786   88.6809   11.8958 O.2     1  UNL1       -0.2526
     11 N          61.4191   89.9512    9.6338 N.am    1  UNL1       -0.2824
     12 H          61.7436   90.7143    9.1033 H       1  UNL1        0.1514
     13 C          63.1159   92.0618   10.9245 C.3     1  UNL1        0.1413
     14 C          66.8034   93.0764   10.2621 C.ar    1  UNL1        0.0875
     15 N          65.4219   92.7634    9.7687 N.ar    1  UNL1       -0.2453
     16 C          64.5684   92.4348   10.9578 C.ar    1  UNL1        0.0858
     17 C          65.4226   92.5447   12.1859 C.ar    1  UNL1        0.0530
     18 S          66.8039   92.9413   11.7560 S.2     1  UNL1       -0.0705
     19 C          67.9979   94.7839    8.7105 C.3     1  UNL1        0.0069
     20 C          67.9782   93.4576    9.4109 C.3     1  UNL1        0.0465
     21 C          69.1333   92.5126    9.2602 C.3     1  UNL1        0.0069
     22 C          59.3568   89.2883    8.1994 C.3     1  UNL1        0.0463
     23 C          59.3250   89.0727    6.7154 C.3     1  UNL1        0.0745
     24 N          59.1096   90.2358    5.7929 N.3     1  UNL1       -0.2684
     25 C          57.7205   90.7365    5.5289 C.3     1  UNL1        0.1046
     26 C          57.5052   91.8996    4.6065 C.3     1  UNL1        0.1595
     27 O          58.6790   92.5620    3.9481 O.3     1  UNL1       -0.3508
     28 C          60.0681   92.0613    4.2121 C.3     1  UNL1        0.1595
     29 C          60.2834   90.8982    5.1345 C.3     1  UNL1        0.1046
     30 C          62.3733   84.8780   10.8989 C.3     1  UNL1        0.0216
     31 C          62.2282   85.6306   12.1882 C.3     1  UNL1        0.0217
     32 C          63.3944   85.7462   13.1246 C.3     1  UNL1        0.0792
     33 N          63.8384   87.0955   13.6066 N.am    1  UNL1       -0.2720
     34 C          63.8288   87.4083   15.0736 C.2     1  UNL1        0.4019
     35 O          63.3752   86.3719   16.0585 O.2     1  UNL1       -0.2264
     36 H          64.1361   87.7757   12.9601 H       1  UNL1        0.1527
     37 O          64.2727   88.7576   15.5556 O.3     1  UNL1       -0.4291
     38 C          64.9668   89.6986   14.6161 C.3     1  UNL1        0.2447
     39 C          65.7374   90.8661   15.1574 C.ar    1  UNL1        0.0714
     40 C          65.1742   91.9935   15.9710 C.ar    1  UNL1        0.1053
     41 N          66.2953   92.9354   16.2966 N.ar    1  UNL1       -0.2350
     42 C          67.5514   92.3902   15.6843 C.ar    1  UNL1        0.1343
     43 S          67.2066   91.1113   14.9802 S.2     1  UNL1       -0.0652
     44 C          64.1166   84.5125   13.5788 C.3     1  UNL1        0.0460
     45 C          63.4393   83.1762   13.5031 C.ar    1  UNL1       -0.0205
     46 C          62.3492   82.8318   14.4741 C.ar    1  UNL1       -0.0042
     47 C          61.6719   81.4956   14.3983 C.ar    1  UNL1       -0.0003
     48 C          62.0849   80.5037   13.3516 C.ar    1  UNL1       -0.0000
     49 C          63.1750   80.8481   12.3806 C.ar    1  UNL1       -0.0003
     50 C          63.8523   82.1843   12.4563 C.ar    1  UNL1       -0.0042
     51 C          63.4032   84.9011    8.5139 C.3     1  UNL1        0.0459
     52 C          62.6793   84.6374    7.2269 C.ar    1  UNL1       -0.0205
     53 C          61.1911   84.4498    7.2284 C.ar    1  UNL1       -0.0042
     54 C          60.4671   84.1861    5.9414 C.ar    1  UNL1       -0.0003
     55 C          61.2314   84.1099    4.6529 C.ar    1  UNL1       -0.0000
     56 C          62.7197   84.2974    4.6515 C.ar    1  UNL1       -0.0003
     57 C          63.4436   84.5611    5.9385 C.ar    1  UNL1       -0.0042
@<TRIPOS>BOND
     1    19    20    1
     2    20    21    1
     3    20    14    1
     4    14    15   ar
     5    15    16   ar
     6    16    13    1
     7    13     7    1
     8     7     8    1
     9     7     9   am
    10     9    10    2
    11     9    11   am
    12    11     6    1
    13     6    22    1
    14    22    23    1
    15    23    24    1
    16    24    25    1
    17    25    26    1
    18    26    27    1
    19    27    28    1
    20    28    29    1
    21     6     2    1
    22     2     3    2
    23     2     4   am
    24     4     1    1
    25     1    30    1
    26    30    31    1
    27    32    31    1
    28    32    44    1
    29    44    45    1
    30    45    46   ar
    31    46    47   ar
    32    47    48   ar
    33    48    49   ar
    34    49    50   ar
    35    32    33    1
    36    33    34   am
    37    34    35    2
    38    34    37    1
    39    37    38    1
    40    38    39    1
    41    39    40   ar
    42    40    41   ar
    43    41    42   ar
    44    42    43   ar
    45     1    51    1
    46    51    52    1
    47    52    53   ar
    48    53    54   ar
    49    54    55   ar
    50    55    56   ar
    51    56    57   ar
    52    16    17   ar
    53    17    18   ar
    54    18    14   ar
    55    29    24    1
    56    50    45   ar
    57    43    39   ar
    58    57    52   ar
    59    11    12    1
    60     4     5    1
    61    33    36    1
