@<TRIPOS>MOLECULE
*****
 19 21 0 0 0
SMALL
GASTEIGER

@<TRIPOS>ATOM
      1 C          66.2775   93.8299   12.2667 C.ar    1  UNL1        0.1388
      2 C          66.7326   93.3712   13.6203 C.ar    1  UNL1        0.0369
      3 C          66.1682   92.1153   14.2156 C.ar    1  UNL1        0.0031
      4 C          65.1487   91.3182   13.4572 C.ar    1  UNL1        0.0010
      5 C          64.5844   90.0624   14.0524 C.ar    1  UNL1        0.0001
      6 C          63.5649   89.2652   13.2940 C.ar    1  UNL1        0.0009
      7 C          63.1097   89.7240   11.9403 C.ar    1  UNL1        0.0121
      8 C          63.6741   90.9798   11.3451 C.ar    1  UNL1        0.0578
      9 CL         63.2190   91.4386    9.9914 Cl      1  UNL1       -0.0822
     10 C          64.6936   91.7770   12.1035 C.ar    1  UNL1        0.0136
     11 C          65.2580   93.0328   11.5083 C.ar    1  UNL1        0.0377
     12 C          62.0903   88.9269   11.1819 C.ar    1  UNL1        0.0200
     13 C          62.5333   87.8986   10.1836 C.ar    1  UNL1        0.0032
     14 C          61.5139   87.1015    9.4252 C.ar    1  UNL1        0.0207
     15 C          60.0513   87.3325    9.6650 C.ar    1  UNL1        0.0989
     16 N          59.6082   88.3607   10.6632 N.ar    1  UNL1       -0.2423
     17 C          60.6277   89.1579   11.4217 C.ar    1  UNL1        0.0989
     18 C          66.8751   95.2608   10.1821 C.3     1  UNL1        0.2525
     19 O          66.8418   95.0858   11.6715 O.3     1  UNL1       -0.4714
@<TRIPOS>BOND
     1    18    19    1
     2    19     1    1
     3     1     2   ar
     4     2     3   ar
     5     3     4   ar
     6     4     5   ar
     7     5     6   ar
     8     6     7   ar
     9     7    12    1
    10    12    13   ar
    11    13    14   ar
    12    14    15   ar
    13    15    16   ar
    14    16    17   ar
    15     7     8   ar
    16     8     9    1
    17     8    10   ar
    18    10    11   ar
    19    11     1   ar
    20    10     4   ar
    21    17    12   ar
@<TRIPOS>MOLECULE
*****
 19 21 0 0 0
SMALL
GASTEIGER

@<TRIPOS>ATOM
      1 C          63.4968   90.6028   12.4904 C.ar    1  UNL1        0.1388
      2 C          62.6884   90.7755   11.2387 C.ar    1  UNL1        0.0369
      3 C          62.1143   89.5758   10.5451 C.ar    1  UNL1        0.0031
      4 C          62.3485   88.2034   11.1032 C.ar    1  UNL1        0.0010
      5 C          61.7744   87.0036   10.4097 C.ar    1  UNL1        0.0001
      6 C          62.0086   85.6312   10.9678 C.ar    1  UNL1        0.0009
      7 C          62.8170   85.4584   12.2195 C.ar    1  UNL1        0.0121
      8 C          63.3911   86.6582   12.9131 C.ar    1  UNL1        0.0578
      9 CL         64.1994   86.4855   14.1648 Cl      1  UNL1       -0.0822
     10 C          63.1568   88.0307   12.3549 C.ar    1  UNL1        0.0136
     11 C          63.7310   89.2304   13.0485 C.ar    1  UNL1        0.0377
     12 C          63.0512   84.0860   12.7776 C.ar    1  UNL1        0.0200
     13 C          63.9490   83.1257   12.0552 C.ar    1  UNL1        0.0032
     14 C          64.1832   81.7533   12.6134 C.ar    1  UNL1        0.0207
     15 C          63.5196   81.3411   13.8939 C.ar    1  UNL1        0.0989
     16 N          62.6218   82.3013   14.6163 N.ar    1  UNL1       -0.2423
     17 C          62.3876   83.6738   14.0582 C.ar    1  UNL1        0.0989
     18 C          65.3738   92.3842   12.7213 C.3     1  UNL1        0.2525
     19 O          64.0709   91.8026   13.1839 O.3     1  UNL1       -0.4714
@<TRIPOS>BOND
     1    18    19    1
     2    19     1    1
     3     1     2   ar
     4     2     3   ar
     5     3     4   ar
     6     4     5   ar
     7     5     6   ar
     8     6     7   ar
     9     7    12    1
    10    12    13   ar
    11    13    14   ar
    12    14    15   ar
    13    15    16   ar
    14    16    17   ar
    15     7     8   ar
    16     8     9    1
    17     8    10   ar
    18    10    11   ar
    19    11     1   ar
    20    10     4   ar
    21    17    12   ar
@<TRIPOS>MOLECULE
*****
 19 21 0 0 0
SMALL
GASTEIGER

@<TRIPOS>ATOM
      1 C          61.7103   88.8065   11.2714 C.ar    1  UNL1        0.1388
      2 C          61.6350   89.6282   10.0188 C.ar    1  UNL1        0.0369
      3 C          62.5536   90.7995    9.8339 C.ar    1  UNL1        0.0031
      4 C          63.5474   91.1492   10.9016 C.ar    1  UNL1        0.0010
      5 C          64.4660   92.3205   10.7166 C.ar    1  UNL1        0.0001
      6 C          65.4599   92.6702   11.7843 C.ar    1  UNL1        0.0009
      7 C          65.5352   91.8484   13.0370 C.ar    1  UNL1        0.0121
      8 C          64.6166   90.6771   13.2219 C.ar    1  UNL1        0.0578
      9 CL         64.6919   89.8554   14.4745 Cl      1  UNL1       -0.0822
     10 C          63.6227   90.3275   12.1542 C.ar    1  UNL1        0.0136
     11 C          62.7042   89.1561   12.3391 C.ar    1  UNL1        0.0377
     12 C          66.5291   92.1981   14.1046 C.ar    1  UNL1        0.0200
     13 C          67.9941   91.9829   13.8650 C.ar    1  UNL1        0.0032
     14 C          68.9880   92.3325   14.9327 C.ar    1  UNL1        0.0207
     15 C          68.5169   92.8973   16.2400 C.ar    1  UNL1        0.0989
     16 N          67.0519   93.1125   16.4796 N.ar    1  UNL1       -0.2423
     17 C          66.0579   92.7629   15.4119 C.ar    1  UNL1        0.0989
     18 C          61.2064   86.2744   10.9807 C.3     1  UNL1        0.2525
     19 O          60.7918   87.6352   11.4564 O.3     1  UNL1       -0.4714
@<TRIPOS>BOND
     1    18    19    1
     2    19     1    1
     3     1     2   ar
     4     2     3   ar
     5     3     4   ar
     6     4     5   ar
     7     5     6   ar
     8     6     7   ar
     9     7    12    1
    10    12    13   ar
    11    13    14   ar
    12    14    15   ar
    13    15    16   ar
    14    16    17   ar
    15     7     8   ar
    16     8     9    1
    17     8    10   ar
    18    10    11   ar
    19    11     1   ar
    20    10     4   ar
    21    17    12   ar
@<TRIPOS>MOLECULE
*****
 19 21 0 0 0
SMALL
GASTEIGER

@<TRIPOS>ATOM
      1 C          61.5246   87.3333    9.8800 C.ar    1  UNL1        0.1388
      2 C          61.7314   85.9376   10.3890 C.ar    1  UNL1        0.0369
      3 C          62.4887   85.7085   11.6633 C.ar    1  UNL1        0.0031
      4 C          63.0393   86.8751   12.4287 C.ar    1  UNL1        0.0010
      5 C          63.7966   86.6460   13.7030 C.ar    1  UNL1        0.0001
      6 C          64.3471   87.8127   14.4684 C.ar    1  UNL1        0.0009
      7 C          64.1404   89.2085   13.9594 C.ar    1  UNL1        0.0121
      8 C          63.3830   89.4376   12.6851 C.ar    1  UNL1        0.0578
      9 CL         63.1763   90.8333   12.1761 Cl      1  UNL1       -0.0822
     10 C          62.8325   88.2709   11.9197 C.ar    1  UNL1        0.0136
     11 C          62.0752   88.5000   10.6453 C.ar    1  UNL1        0.0377
     12 C          64.6909   90.3751   14.7248 C.ar    1  UNL1        0.0200
     13 C          66.0436   90.9258   14.3824 C.ar    1  UNL1        0.0032
     14 C          66.5941   92.0924   15.1477 C.ar    1  UNL1        0.0207
     15 C          65.7921   92.7085   16.2555 C.ar    1  UNL1        0.0989
     16 N          64.4395   92.1579   16.5979 N.ar    1  UNL1       -0.2423
     17 C          63.8888   90.9912   15.8325 C.ar    1  UNL1        0.0989
     18 C          60.1526   86.4027    7.8796 C.3     1  UNL1        0.2525
     19 O          60.7673   87.5624    8.6056 O.3     1  UNL1       -0.4714
@<TRIPOS>BOND
     1    18    19    1
     2    19     1    1
     3     1     2   ar
     4     2     3   ar
     5     3     4   ar
     6     4     5   ar
     7     5     6   ar
     8     6     7   ar
     9     7    12    1
    10    12    13   ar
    11    13    14   ar
    12    14    15   ar
    13    15    16   ar
    14    16    17   ar
    15     7     8   ar
    16     8     9    1
    17     8    10   ar
    18    10    11   ar
    19    11     1   ar
    20    10     4   ar
    21    17    12   ar
@<TRIPOS>MOLECULE
*****
 19 21 0 0 0
SMALL
GASTEIGER

@<TRIPOS>ATOM
      1 C          66.4563   92.4882   14.7767 C.ar    1  UNL1        0.1388
      2 C          66.8433   93.5462   13.7864 C.ar    1  UNL1        0.0369
      3 C          66.2156   93.5641   12.4242 C.ar    1  UNL1        0.0031
      4 C          65.2009   92.5240   12.0522 C.ar    1  UNL1        0.0010
      5 C          64.5732   92.5419   10.6900 C.ar    1  UNL1        0.0001
      6 C          63.5585   91.5018   10.3180 C.ar    1  UNL1        0.0009
      7 C          63.1714   90.4437   11.3083 C.ar    1  UNL1        0.0121
      8 C          63.7991   90.4257   12.6705 C.ar    1  UNL1        0.0578
      9 CL         63.4120   89.3677   13.6608 Cl      1  UNL1       -0.0822
     10 C          64.8139   91.4659   13.0425 C.ar    1  UNL1        0.0136
     11 C          65.4415   91.4480   14.4047 C.ar    1  UNL1        0.0377
     12 C          62.1567   89.4035   10.9363 C.ar    1  UNL1        0.0200
     13 C          62.5271   88.2981    9.9924 C.ar    1  UNL1        0.0032
     14 C          61.5124   87.2579    9.6205 C.ar    1  UNL1        0.0207
     15 C          60.1272   87.3232   10.1923 C.ar    1  UNL1        0.0989
     16 N          59.7568   88.4286   11.1361 N.ar    1  UNL1       -0.2423
     17 C          60.7715   89.4688   11.5081 C.ar    1  UNL1        0.0989
     18 C          68.5774   92.4874   16.2768 C.3     1  UNL1        0.2525
     19 O          67.0839   92.4702   16.1389 O.3     1  UNL1       -0.4714
@<TRIPOS>BOND
     1    18    19    1
     2    19     1    1
     3     1     2   ar
     4     2     3   ar
     5     3     4   ar
     6     4     5   ar
     7     5     6   ar
     8     6     7   ar
     9     7    12    1
    10    12    13   ar
    11    13    14   ar
    12    14    15   ar
    13    15    16   ar
    14    16    17   ar
    15     7     8   ar
    16     8     9    1
    17     8    10   ar
    18    10    11   ar
    19    11     1   ar
    20    10     4   ar
    21    17    12   ar
@<TRIPOS>MOLECULE
*****
 19 21 0 0 0
SMALL
GASTEIGER

@<TRIPOS>ATOM
      1 C          62.4896   85.2095   11.5465 C.ar    1  UNL1        0.1388
      2 C          61.8657   85.8234   10.3284 C.ar    1  UNL1        0.0369
      3 C          61.8938   87.3113   10.1403 C.ar    1  UNL1        0.0031
      4 C          62.5459   88.1852   11.1703 C.ar    1  UNL1        0.0010
      5 C          62.5740   89.6731   10.9822 C.ar    1  UNL1        0.0001
      6 C          63.2261   90.5471   12.0122 C.ar    1  UNL1        0.0009
      7 C          63.8501   89.9332   13.2303 C.ar    1  UNL1        0.0121
      8 C          63.8220   88.4453   13.4184 C.ar    1  UNL1        0.0578
      9 CL         64.4459   87.8314   14.6365 Cl      1  UNL1       -0.0822
     10 C          63.1698   87.5713   12.3884 C.ar    1  UNL1        0.0136
     11 C          63.1417   86.0834   12.5765 C.ar    1  UNL1        0.0377
     12 C          64.5022   90.8072   14.2603 C.ar    1  UNL1        0.0200
     13 C          65.8809   91.3477   14.0211 C.ar    1  UNL1        0.0032
     14 C          66.5330   92.2217   15.0511 C.ar    1  UNL1        0.0207
     15 C          65.8064   92.5552   16.3203 C.ar    1  UNL1        0.0989
     16 N          64.4278   92.0148   16.5595 N.ar    1  UNL1       -0.2423
     17 C          63.7756   91.1407   15.5295 C.ar    1  UNL1        0.0989
     18 C          63.5807   82.8769   11.2017 C.3     1  UNL1        0.2525
     19 O          62.4615   83.7216   11.7346 O.3     1  UNL1       -0.4714
@<TRIPOS>BOND
     1    18    19    1
     2    19     1    1
     3     1     2   ar
     4     2     3   ar
     5     3     4   ar
     6     4     5   ar
     7     5     6   ar
     8     6     7   ar
     9     7    12    1
    10    12    13   ar
    11    13    14   ar
    12    14    15   ar
    13    15    16   ar
    14    16    17   ar
    15     7     8   ar
    16     8     9    1
    17     8    10   ar
    18    10    11   ar
    19    11     1   ar
    20    10     4   ar
    21    17    12   ar
@<TRIPOS>MOLECULE
*****
 19 21 0 0 0
SMALL
GASTEIGER

@<TRIPOS>ATOM
      1 C          63.3160   89.7157   12.3403 C.ar    1  UNL1        0.1388
      2 C          64.0942   90.0933   13.5657 C.ar    1  UNL1        0.0369
      3 C          64.5281   89.0337   14.5347 C.ar    1  UNL1        0.0031
      4 C          64.1838   87.5964   14.2783 C.ar    1  UNL1        0.0010
      5 C          64.6177   86.5368   15.2473 C.ar    1  UNL1        0.0001
      6 C          64.2733   85.0996   14.9908 C.ar    1  UNL1        0.0009
      7 C          63.4950   84.7220   13.7653 C.ar    1  UNL1        0.0121
      8 C          63.0611   85.7816   12.7964 C.ar    1  UNL1        0.0578
      9 CL         62.2829   85.4040   11.5709 Cl      1  UNL1       -0.0822
     10 C          63.4055   87.2189   13.0528 C.ar    1  UNL1        0.0136
     11 C          62.9716   88.2785   12.0839 C.ar    1  UNL1        0.0377
     12 C          63.1507   83.2847   13.5089 C.ar    1  UNL1        0.0200
     13 C          62.1296   82.5941   14.3637 C.ar    1  UNL1        0.0032
     14 C          61.7853   81.1569   14.1072 C.ar    1  UNL1        0.0207
     15 C          62.4619   80.4103   12.9961 C.ar    1  UNL1        0.0989
     16 N          63.4830   81.1008   12.1414 N.ar    1  UNL1       -0.2423
     17 C          63.8274   82.5381   12.3978 C.ar    1  UNL1        0.0989
     18 C          61.8492   90.4616   10.3298 C.3     1  UNL1        0.2525
     19 O          62.8821   90.7753   11.3713 O.3     1  UNL1       -0.4714
@<TRIPOS>BOND
     1    18    19    1
     2    19     1    1
     3     1     2   ar
     4     2     3   ar
     5     3     4   ar
     6     4     5   ar
     7     5     6   ar
     8     6     7   ar
     9     7    12    1
    10    12    13   ar
    11    13    14   ar
    12    14    15   ar
    13    15    16   ar
    14    16    17   ar
    15     7     8   ar
    16     8     9    1
    17     8    10   ar
    18    10    11   ar
    19    11     1   ar
    20    10     4   ar
    21    17    12   ar
@<TRIPOS>MOLECULE
*****
 19 21 0 0 0
SMALL
GASTEIGER

@<TRIPOS>ATOM
      1 C          63.6385   83.0828   13.4079 C.ar    1  UNL1        0.1388
      2 C          64.5207   82.2942   12.4862 C.ar    1  UNL1        0.0369
      3 C          64.5456   82.6092   11.0199 C.ar    1  UNL1        0.0031
      4 C          63.6882   83.7129   10.4753 C.ar    1  UNL1        0.0010
      5 C          63.7131   84.0279    9.0089 C.ar    1  UNL1        0.0001
      6 C          62.8557   85.1316    8.4643 C.ar    1  UNL1        0.0009
      7 C          61.9733   85.9203    9.3860 C.ar    1  UNL1        0.0121
      8 C          61.9485   85.6053   10.8523 C.ar    1  UNL1        0.0578
      9 CL         61.0662   86.3940   11.7740 Cl      1  UNL1       -0.0822
     10 C          62.8059   84.5016   11.3969 C.ar    1  UNL1        0.0136
     11 C          62.7811   84.1865   12.8633 C.ar    1  UNL1        0.0377
     12 C          61.1159   87.0240    8.8413 C.ar    1  UNL1        0.0200
     13 C          60.0445   86.7158    7.8378 C.ar    1  UNL1        0.0032
     14 C          59.1871   87.8195    7.2932 C.ar    1  UNL1        0.0207
     15 C          59.4011   89.2314    7.7520 C.ar    1  UNL1        0.0989
     16 N          60.4725   89.5397    8.7555 N.ar    1  UNL1       -0.2423
     17 C          61.3299   88.4360    9.3002 C.ar    1  UNL1        0.0989
     18 C          62.8929   83.6773   15.8247 C.3     1  UNL1        0.2525
     19 O          63.6136   82.7678   14.8743 O.3     1  UNL1       -0.4714
@<TRIPOS>BOND
     1    18    19    1
     2    19     1    1
     3     1     2   ar
     4     2     3   ar
     5     3     4   ar
     6     4     5   ar
     7     5     6   ar
     8     6     7   ar
     9     7    12    1
    10    12    13   ar
    11    13    14   ar
    12    14    15   ar
    13    15    16   ar
    14    16    17   ar
    15     7     8   ar
    16     8     9    1
    17     8    10   ar
    18    10    11   ar
    19    11     1   ar
    20    10     4   ar
    21    17    12   ar
@<TRIPOS>MOLECULE
*****
 19 21 0 0 0
SMALL
GASTEIGER

@<TRIPOS>ATOM
      1 C          59.3468   88.4823    7.4828 C.ar    1  UNL1        0.1388
      2 C          59.3310   86.9833    7.5347 C.ar    1  UNL1        0.0369
      3 C          60.1274   86.2607    8.5805 C.ar    1  UNL1        0.0031
      4 C          60.9394   87.0371    9.5744 C.ar    1  UNL1        0.0010
      5 C          61.7358   86.3144   10.6202 C.ar    1  UNL1        0.0001
      6 C          62.5478   87.0908   11.6140 C.ar    1  UNL1        0.0009
      7 C          62.5636   88.5899   11.5621 C.ar    1  UNL1        0.0121
      8 C          61.7673   89.3125   10.5163 C.ar    1  UNL1        0.0578
      9 CL         61.7830   90.8115   10.4644 Cl      1  UNL1       -0.0822
     10 C          60.9552   88.5360    9.5224 C.ar    1  UNL1        0.0136
     11 C          60.1588   89.2587    8.4766 C.ar    1  UNL1        0.0377
     12 C          63.3757   89.3662   12.5559 C.ar    1  UNL1        0.0200
     13 C          63.9333   88.6805   13.7680 C.ar    1  UNL1        0.0032
     14 C          64.7454   89.4569   14.7618 C.ar    1  UNL1        0.0207
     15 C          64.9998   90.9189   14.5437 C.ar    1  UNL1        0.0989
     16 N          64.4423   91.6047   13.3318 N.ar    1  UNL1       -0.2423
     17 C          63.6301   90.8283   12.3378 C.ar    1  UNL1        0.0989
     18 C          59.1564   90.3618    5.6992 C.3     1  UNL1        0.2525
     19 O          58.5504   89.2049    6.4370 O.3     1  UNL1       -0.4714
@<TRIPOS>BOND
     1    18    19    1
     2    19     1    1
     3     1     2   ar
     4     2     3   ar
     5     3     4   ar
     6     4     5   ar
     7     5     6   ar
     8     6     7   ar
     9     7    12    1
    10    12    13   ar
    11    13    14   ar
    12    14    15   ar
    13    15    16   ar
    14    16    17   ar
    15     7     8   ar
    16     8     9    1
    17     8    10   ar
    18    10    11   ar
    19    11     1   ar
    20    10     4   ar
    21    17    12   ar
