@<TRIPOS>MOLECULE
*****
 41 44 0 0 0
SMALL
GASTEIGER

@<TRIPOS>ATOM
      1 C          63.0001   87.1387   13.3664 C.ar    1  UNL1        0.1726
      2 C          62.3842   87.5893   12.0751 C.ar    1  UNL1        0.0411
      3 C          62.7199   88.9397   11.5150 C.ar    1  UNL1        0.0180
      4 C          63.6715   89.8395   12.2463 C.ar    1  UNL1        0.0540
      5 C          64.2875   89.3889   13.5376 C.ar    1  UNL1        0.0475
      6 C          63.9518   88.0385   14.0977 C.ar    1  UNL1        0.1756
      7 F          64.5678   87.5878   15.3890 F       1  UNL1       -0.2009
      8 N          64.0072   91.1899   11.6862 N.am    1  UNL1       -0.2679
      9 C          64.9804   92.0783   12.4028 C.2     1  UNL1        0.3102
     10 O          65.6180   91.6163   13.6796 O.2     1  UNL1       -0.2521
     11 N          65.3161   93.4287   11.8427 N.am    1  UNL1       -0.2391
     12 C          66.2893   94.3171   12.5594 C.2     1  UNL1        0.2337
     13 O          66.9268   93.8551   13.8362 O.2     1  UNL1       -0.2743
     14 H          63.5888   91.4932   10.8482 H       1  UNL1        0.1564
     15 H          64.8976   93.7320   11.0048 H       1  UNL1        0.1591
     16 C          66.6250   95.6675   11.9994 C.3     1  UNL1        0.1118
     17 C          66.3817   95.9593   10.5483 C.ar    1  UNL1       -0.0129
     18 C          65.0800   96.5641   10.1129 C.ar    1  UNL1       -0.0015
     19 C          64.8367   96.8559    8.6618 C.ar    1  UNL1        0.0293
     20 C          65.8951   96.5427    7.6461 C.ar    1  UNL1        0.1401
     21 F          65.6518   96.8345    6.1950 F       1  UNL1       -0.2042
     22 C          67.1969   95.9378    8.0815 C.ar    1  UNL1        0.0293
     23 C          67.4402   95.6461    9.5326 C.ar    1  UNL1       -0.0015
     24 O          62.6645   85.7882   13.9265 O.3     1  UNL1       -0.4505
     25 N          63.8216   82.5681   10.0160 N.pl3   1  UNL1       -0.3421
     26 C          63.9483   82.9574   11.4591 C.ar    1  UNL1        0.1360
     27 N          64.7802   82.1259   12.3899 N.ar    1  UNL1       -0.2288
     28 C          64.9069   82.5152   13.8330 C.ar    1  UNL1        0.1035
     29 C          64.2017   83.7360   14.3452 C.ar    1  UNL1        0.0589
     30 C          63.3698   84.5674   13.4143 C.ar    1  UNL1        0.1572
     31 C          63.2431   84.1781   11.9713 C.ar    1  UNL1        0.1075
     32 H          64.2845   81.7669    9.6798 H       1  UNL1        0.1437
     33 H          63.2756   83.1139    9.4050 H       1  UNL1        0.1437
     34 C          62.4111   85.0097   11.0404 C.1     1  UNL1       -0.0524
     35 C          61.5792   85.8412   10.1095 C.1     1  UNL1       -0.0403
     36 C          60.7473   86.6727    9.1787 C.ar    1  UNL1        0.1228
     37 C          60.0489   86.0279    8.0183 C.ar    1  UNL1        0.0276
     38 C          59.2169   86.8594    7.0874 C.ar    1  UNL1        0.0038
     39 C          59.0834   88.3357    7.3170 C.ar    1  UNL1        0.0207
     40 C          59.7818   88.9805    8.4773 C.ar    1  UNL1        0.0996
     41 N          60.6137   88.1490    9.4082 N.ar    1  UNL1       -0.2356
@<TRIPOS>BOND
     1    25    26    1
     2    26    27   ar
     3    27    28   ar
     4    28    29   ar
     5    29    30   ar
     6    30    24    1
     7    24     1    1
     8     1     2   ar
     9     2     3   ar
    10     3     4   ar
    11     4     8    1
    12     8     9   am
    13     9    10    2
    14     9    11   am
    15    11    12   am
    16    12    13    2
    17    12    16    1
    18    16    17    1
    19    17    18   ar
    20    18    19   ar
    21    19    20   ar
    22    20    21    1
    23    20    22   ar
    24    22    23   ar
    25     4     5   ar
    26     5     6   ar
    27     6     7    1
    28    30    31   ar
    29    31    34    1
    30    34    35    3
    31    35    36    1
    32    36    37   ar
    33    37    38   ar
    34    38    39   ar
    35    39    40   ar
    36    40    41   ar
    37    31    26   ar
    38    41    36   ar
    39     6     1   ar
    40    23    17   ar
    41    25    32    1
    42    25    33    1
    43     8    14    1
    44    11    15    1
@<TRIPOS>MOLECULE
*****
 41 44 0 0 0
SMALL
GASTEIGER

@<TRIPOS>ATOM
      1 C          61.2371   86.6121   11.3445 C.ar    1  UNL1        0.1726
      2 C          62.0588   86.3829   10.1107 C.ar    1  UNL1        0.0411
      3 C          62.0348   87.3868    8.9965 C.ar    1  UNL1        0.0180
      4 C          61.1892   88.6199    9.1160 C.ar    1  UNL1        0.0540
      5 C          60.3675   88.8492   10.3498 C.ar    1  UNL1        0.0475
      6 C          60.3914   87.8453   11.4641 C.ar    1  UNL1        0.1756
      7 F          59.5698   88.0745   12.6979 F       1  UNL1       -0.2009
      8 N          61.1652   89.6238    8.0017 N.am    1  UNL1       -0.2679
      9 C          59.9143   89.8227    7.1982 C.2     1  UNL1        0.3102
     10 O          58.6873   89.0177    7.5090 O.2     1  UNL1       -0.2521
     11 N          59.8903   90.8266    6.0839 N.am    1  UNL1       -0.2391
     12 C          58.6393   91.0255    5.2804 C.2     1  UNL1        0.2337
     13 O          57.4124   90.2205    5.5912 O.2     1  UNL1       -0.2743
     14 H          61.9705   90.1521    7.7977 H       1  UNL1        0.1564
     15 H          60.6956   91.3550    5.8799 H       1  UNL1        0.1591
     16 C          58.6154   92.0294    4.1661 C.3     1  UNL1        0.1118
     17 C          59.8610   92.3036    3.3767 C.ar    1  UNL1       -0.0129
     18 C          61.1743   91.7357    3.8268 C.ar    1  UNL1       -0.0015
     19 C          62.4200   92.0098    3.0374 C.ar    1  UNL1        0.0293
     20 C          62.3523   92.8519    1.7979 C.ar    1  UNL1        0.1401
     21 F          63.5979   93.1261    1.0085 F       1  UNL1       -0.2042
     22 C          61.0389   93.4198    1.3478 C.ar    1  UNL1        0.0293
     23 C          59.7933   93.1457    2.1373 C.ar    1  UNL1       -0.0015
     24 O          61.2611   85.6082   12.4588 O.3     1  UNL1       -0.4505
     25 N          66.0807   84.4322   14.0045 N.pl3   1  UNL1       -0.3421
     26 C          64.7996   84.0373   13.3314 C.ar    1  UNL1        0.1360
     27 N          64.6472   82.6596   12.7582 N.ar    1  UNL1       -0.2288
     28 C          63.3662   82.2647   12.0852 C.ar    1  UNL1        0.1035
     29 C          62.2375   83.2476   11.9854 C.ar    1  UNL1        0.0589
     30 C          62.3898   84.6253   12.5586 C.ar    1  UNL1        0.1572
     31 C          63.6709   85.0202   13.2316 C.ar    1  UNL1        0.1075
     32 H          66.8215   83.7871   14.0700 H       1  UNL1        0.1437
     33 H          66.1806   85.3365   14.3807 H       1  UNL1        0.1437
     34 C          63.8232   86.3980   13.8049 C.1     1  UNL1       -0.0524
     35 C          63.9755   87.7757   14.3781 C.1     1  UNL1       -0.0403
     36 C          64.1278   89.1535   14.9514 C.ar    1  UNL1        0.1228
     37 C          65.0740   90.1294   14.3170 C.ar    1  UNL1        0.0276
     38 C          65.2263   91.5071   14.8902 C.ar    1  UNL1        0.0038
     39 C          64.4325   91.9090   16.0978 C.ar    1  UNL1        0.0207
     40 C          63.4863   90.9331   16.7322 C.ar    1  UNL1        0.0996
     41 N          63.3340   89.5553   16.1590 N.ar    1  UNL1       -0.2356
@<TRIPOS>BOND
     1    25    26    1
     2    26    27   ar
     3    27    28   ar
     4    28    29   ar
     5    29    30   ar
     6    30    24    1
     7    24     1    1
     8     1     2   ar
     9     2     3   ar
    10     3     4   ar
    11     4     8    1
    12     8     9   am
    13     9    10    2
    14     9    11   am
    15    11    12   am
    16    12    13    2
    17    12    16    1
    18    16    17    1
    19    17    18   ar
    20    18    19   ar
    21    19    20   ar
    22    20    21    1
    23    20    22   ar
    24    22    23   ar
    25     4     5   ar
    26     5     6   ar
    27     6     7    1
    28    30    31   ar
    29    31    34    1
    30    34    35    3
    31    35    36    1
    32    36    37   ar
    33    37    38   ar
    34    38    39   ar
    35    39    40   ar
    36    40    41   ar
    37    31    26   ar
    38    41    36   ar
    39     6     1   ar
    40    23    17   ar
    41    25    32    1
    42    25    33    1
    43     8    14    1
    44    11    15    1
@<TRIPOS>MOLECULE
*****
 41 44 0 0 0
SMALL
GASTEIGER

@<TRIPOS>ATOM
      1 C          60.6942   88.0353    9.4492 C.ar    1  UNL1        0.1726
      2 C          60.6690   87.3793    8.1005 C.ar    1  UNL1        0.0411
      3 C          60.0479   88.0878    6.9334 C.ar    1  UNL1        0.0180
      4 C          59.4519   89.4523    7.1149 C.ar    1  UNL1        0.0540
      5 C          59.4770   90.1083    8.4636 C.ar    1  UNL1        0.0475
      6 C          60.0982   89.3998    9.6308 C.ar    1  UNL1        0.1756
      7 F          60.1233   90.0558   10.9795 F       1  UNL1       -0.2009
      8 N          58.8308   90.1607    5.9477 N.am    1  UNL1       -0.2679
      9 C          59.6894   90.9565    5.0100 C.2     1  UNL1        0.3102
     10 O          61.1692   91.0439    5.2394 O.2     1  UNL1       -0.2521
     11 N          59.0683   91.6650    3.8428 N.am    1  UNL1       -0.2391
     12 C          59.9270   92.4608    2.9050 C.2     1  UNL1        0.2337
     13 O          61.4067   92.5482    3.1344 O.2     1  UNL1       -0.2743
     14 H          57.8595   90.1034    5.7972 H       1  UNL1        0.1564
     15 H          58.0970   91.6077    3.6923 H       1  UNL1        0.1591
     16 C          59.3058   93.1693    1.7379 C.3     1  UNL1        0.1118
     17 C          60.1722   93.6952    0.6322 C.ar    1  UNL1       -0.0129
     18 C          60.4606   95.1643    0.5395 C.ar    1  UNL1       -0.0015
     19 C          61.3271   95.6903   -0.5663 C.ar    1  UNL1        0.0293
     20 C          61.9051   94.7471   -1.5793 C.ar    1  UNL1        0.1401
     21 F          62.7715   95.2731   -2.6851 F       1  UNL1       -0.2042
     22 C          61.6167   93.2780   -1.4867 C.ar    1  UNL1        0.0293
     23 C          60.7503   92.7521   -0.3809 C.ar    1  UNL1       -0.0015
     24 O          61.3153   87.3268   10.6164 O.3     1  UNL1       -0.4505
     25 N          64.7069   87.3118   14.5530 N.pl3   1  UNL1       -0.3421
     26 C          63.9362   88.0588   13.5051 C.ar    1  UNL1        0.1360
     27 N          64.0906   89.5454   13.3778 N.ar    1  UNL1       -0.2288
     28 C          63.3199   90.2925   12.3300 C.ar    1  UNL1        0.1035
     29 C          62.3948   89.5530   11.4095 C.ar    1  UNL1        0.0589
     30 C          62.2404   88.0664   11.5369 C.ar    1  UNL1        0.1572
     31 C          63.0111   87.3193   12.5847 C.ar    1  UNL1        0.1075
     32 H          65.3141   87.7972   15.1571 H       1  UNL1        0.1437
     33 H          64.6056   86.3361   14.6365 H       1  UNL1        0.1437
     34 C          62.8567   85.8327   12.7120 C.1     1  UNL1       -0.0524
     35 C          62.7023   84.3462   12.8393 C.1     1  UNL1       -0.0403
     36 C          62.5478   82.8595   12.9666 C.ar    1  UNL1        0.1228
     37 C          63.0071   81.9601   11.8575 C.ar    1  UNL1        0.0276
     38 C          62.8527   80.4735   11.9848 C.ar    1  UNL1        0.0038
     39 C          62.2391   79.8864   13.2212 C.ar    1  UNL1        0.0207
     40 C          61.7798   80.7858   14.3303 C.ar    1  UNL1        0.0996
     41 N          61.9342   82.2724   14.2030 N.ar    1  UNL1       -0.2356
@<TRIPOS>BOND
     1    25    26    1
     2    26    27   ar
     3    27    28   ar
     4    28    29   ar
     5    29    30   ar
     6    30    24    1
     7    24     1    1
     8     1     2   ar
     9     2     3   ar
    10     3     4   ar
    11     4     8    1
    12     8     9   am
    13     9    10    2
    14     9    11   am
    15    11    12   am
    16    12    13    2
    17    12    16    1
    18    16    17    1
    19    17    18   ar
    20    18    19   ar
    21    19    20   ar
    22    20    21    1
    23    20    22   ar
    24    22    23   ar
    25     4     5   ar
    26     5     6   ar
    27     6     7    1
    28    30    31   ar
    29    31    34    1
    30    34    35    3
    31    35    36    1
    32    36    37   ar
    33    37    38   ar
    34    38    39   ar
    35    39    40   ar
    36    40    41   ar
    37    31    26   ar
    38    41    36   ar
    39     6     1   ar
    40    23    17   ar
    41    25    32    1
    42    25    33    1
    43     8    14    1
    44    11    15    1
@<TRIPOS>MOLECULE
*****
 41 44 0 0 0
SMALL
GASTEIGER

@<TRIPOS>ATOM
      1 C          63.5425   90.1753   13.2621 C.ar    1  UNL1        0.1726
      2 C          64.1919   89.1213   14.1090 C.ar    1  UNL1        0.0411
      3 C          63.9538   87.6700   13.8138 C.ar    1  UNL1        0.0180
      4 C          63.0662   87.2728   12.6717 C.ar    1  UNL1        0.0540
      5 C          62.4167   88.3268   11.8248 C.ar    1  UNL1        0.0475
      6 C          62.6548   89.7781   12.1200 C.ar    1  UNL1        0.1756
      7 F          62.0053   90.8321   11.2732 F       1  UNL1       -0.2009
      8 N          62.8281   85.8215   12.3765 N.am    1  UNL1       -0.2679
      9 C          62.7546   84.8299   13.4996 C.2     1  UNL1        0.3102
     10 O          62.9194   85.2896   14.9180 O.2     1  UNL1       -0.2521
     11 N          62.5165   83.3787   13.2044 N.am    1  UNL1       -0.2391
     12 C          62.4431   82.3871   14.3276 C.2     1  UNL1        0.2337
     13 O          62.6078   82.8468   15.7458 O.2     1  UNL1       -0.2743
     14 H          62.7200   85.5198   11.4457 H       1  UNL1        0.1564
     15 H          62.4084   83.0770   12.2735 H       1  UNL1        0.1591
     16 C          62.2050   80.9358   14.0324 C.3     1  UNL1        0.1118
     17 C          62.5063   80.3886   12.6687 C.ar    1  UNL1       -0.0129
     18 C          62.3845   78.9165   12.4076 C.ar    1  UNL1       -0.0015
     19 C          62.6859   78.3692   11.0439 C.ar    1  UNL1        0.0293
     20 C          63.1090   79.2940    9.9413 C.ar    1  UNL1        0.1401
     21 F          63.4103   78.7467    8.5776 F       1  UNL1       -0.2042
     22 C          63.2308   80.7661   10.2024 C.ar    1  UNL1        0.0293
     23 C          62.9295   81.3134   11.5661 C.ar    1  UNL1       -0.0015
     24 O          63.7806   91.6266   13.5573 O.3     1  UNL1       -0.4505
     25 N          68.1953   93.6316   15.4255 N.pl3   1  UNL1       -0.3421
     26 C          66.8426   93.0267   15.6583 C.ar    1  UNL1        0.1360
     27 N          66.3445   92.8193   17.0578 N.ar    1  UNL1       -0.2288
     28 C          64.9918   92.2144   17.2906 C.ar    1  UNL1        0.1035
     29 C          64.1371   91.8168   16.1238 C.ar    1  UNL1        0.0589
     30 C          64.6352   92.0242   14.7242 C.ar    1  UNL1        0.1572
     31 C          65.9880   92.6291   14.4915 C.ar    1  UNL1        0.1075
     32 H          68.7562   93.8926   16.1913 H       1  UNL1        0.1437
     33 H          68.5222   93.7677   14.5069 H       1  UNL1        0.1437
     34 C          66.4860   92.8364   13.0918 C.1     1  UNL1       -0.0524
     35 C          66.9841   93.0437   11.6922 C.1     1  UNL1       -0.0403
     36 C          67.4822   93.2510   10.2925 C.ar    1  UNL1        0.1228
     37 C          68.3420   92.2092    9.6404 C.ar    1  UNL1        0.0276
     38 C          68.8400   92.4164    8.2408 C.ar    1  UNL1        0.0038
     39 C          68.4783   93.6656    7.4933 C.ar    1  UNL1        0.0207
     40 C          67.6185   94.7074    8.1454 C.ar    1  UNL1        0.0996
     41 N          67.1204   94.5002    9.5450 N.ar    1  UNL1       -0.2356
@<TRIPOS>BOND
     1    25    26    1
     2    26    27   ar
     3    27    28   ar
     4    28    29   ar
     5    29    30   ar
     6    30    24    1
     7    24     1    1
     8     1     2   ar
     9     2     3   ar
    10     3     4   ar
    11     4     8    1
    12     8     9   am
    13     9    10    2
    14     9    11   am
    15    11    12   am
    16    12    13    2
    17    12    16    1
    18    16    17    1
    19    17    18   ar
    20    18    19   ar
    21    19    20   ar
    22    20    21    1
    23    20    22   ar
    24    22    23   ar
    25     4     5   ar
    26     5     6   ar
    27     6     7    1
    28    30    31   ar
    29    31    34    1
    30    34    35    3
    31    35    36    1
    32    36    37   ar
    33    37    38   ar
    34    38    39   ar
    35    39    40   ar
    36    40    41   ar
    37    31    26   ar
    38    41    36   ar
    39     6     1   ar
    40    23    17   ar
    41    25    32    1
    42    25    33    1
    43     8    14    1
    44    11    15    1
@<TRIPOS>MOLECULE
*****
 41 44 0 0 0
SMALL
GASTEIGER

@<TRIPOS>ATOM
      1 C          63.8688   89.1950   15.5295 C.ar    1  UNL1        0.1726
      2 C          64.2991   88.7600   14.1600 C.ar    1  UNL1        0.0411
      3 C          64.4326   87.2997   13.8443 C.ar    1  UNL1        0.0180
      4 C          64.1359   86.2744   14.8981 C.ar    1  UNL1        0.0540
      5 C          63.7055   86.7093   16.2677 C.ar    1  UNL1        0.0475
      6 C          63.5720   88.1696   16.5834 C.ar    1  UNL1        0.1756
      7 F          63.1416   88.6046   17.9529 F       1  UNL1       -0.2009
      8 N          64.2694   84.8140   14.5824 N.am    1  UNL1       -0.2679
      9 C          63.0586   83.9290   14.6008 C.2     1  UNL1        0.3102
     10 O          61.7141   84.5042   14.9348 O.2     1  UNL1       -0.2521
     11 N          63.1921   82.4686   14.2851 N.am    1  UNL1       -0.2391
     12 C          61.9812   81.5835   14.3035 C.2     1  UNL1        0.2337
     13 O          60.6367   82.1588   14.6375 O.2     1  UNL1       -0.2743
     14 H          65.1518   84.4365   14.3632 H       1  UNL1        0.1564
     15 H          64.0745   82.0911   14.0658 H       1  UNL1        0.1591
     16 C          62.1147   80.1232   13.9878 C.3     1  UNL1        0.1118
     17 C          62.4660   79.6857   12.5967 C.ar    1  UNL1       -0.0129
     18 C          62.8232   80.7064   11.5572 C.ar    1  UNL1       -0.0015
     19 C          63.1745   80.2688   10.1661 C.ar    1  UNL1        0.0293
     20 C          63.1686   78.8106    9.8145 C.ar    1  UNL1        0.1401
     21 F          63.5199   78.3731    8.4234 F       1  UNL1       -0.2042
     22 C          62.8114   77.7899   10.8541 C.ar    1  UNL1        0.0293
     23 C          62.4601   78.2275   12.2451 C.ar    1  UNL1       -0.0015
     24 O          63.7352   90.6553   15.8451 O.3     1  UNL1       -0.4505
     25 N          65.9973   93.1596   11.8940 N.pl3   1  UNL1       -0.3421
     26 C          65.8895   92.8807   13.3639 C.ar    1  UNL1        0.1360
     27 N          66.8050   93.5750   14.3281 N.ar    1  UNL1       -0.2288
     28 C          66.6973   93.2961   15.7980 C.ar    1  UNL1        0.1035
     29 C          65.6740   92.3229   16.3037 C.ar    1  UNL1        0.0589
     30 C          64.7585   91.6286   15.3395 C.ar    1  UNL1        0.1572
     31 C          64.8663   91.9075   13.8696 C.ar    1  UNL1        0.1075
     32 H          66.6689   93.7984   11.5621 H       1  UNL1        0.1437
     33 H          65.3964   92.7039   11.2612 H       1  UNL1        0.1437
     34 C          63.9507   91.2131   12.9054 C.1     1  UNL1       -0.0524
     35 C          63.0352   90.5188   11.9412 C.1     1  UNL1       -0.0403
     36 C          62.1197   89.8244   10.9770 C.ar    1  UNL1        0.1228
     37 C          62.4161   88.4205   10.5398 C.ar    1  UNL1        0.0276
     38 C          61.5006   87.7261    9.5756 C.ar    1  UNL1        0.0038
     39 C          60.2887   88.4357    9.0486 C.ar    1  UNL1        0.0207
     40 C          59.9923   89.8396    9.4858 C.ar    1  UNL1        0.0996
     41 N          60.9078   90.5340   10.4499 N.ar    1  UNL1       -0.2356
@<TRIPOS>BOND
     1    25    26    1
     2    26    27   ar
     3    27    28   ar
     4    28    29   ar
     5    29    30   ar
     6    30    24    1
     7    24     1    1
     8     1     2   ar
     9     2     3   ar
    10     3     4   ar
    11     4     8    1
    12     8     9   am
    13     9    10    2
    14     9    11   am
    15    11    12   am
    16    12    13    2
    17    12    16    1
    18    16    17    1
    19    17    18   ar
    20    18    19   ar
    21    19    20   ar
    22    20    21    1
    23    20    22   ar
    24    22    23   ar
    25     4     5   ar
    26     5     6   ar
    27     6     7    1
    28    30    31   ar
    29    31    34    1
    30    34    35    3
    31    35    36    1
    32    36    37   ar
    33    37    38   ar
    34    38    39   ar
    35    39    40   ar
    36    40    41   ar
    37    31    26   ar
    38    41    36   ar
    39     6     1   ar
    40    23    17   ar
    41    25    32    1
    42    25    33    1
    43     8    14    1
    44    11    15    1
@<TRIPOS>MOLECULE
*****
 41 44 0 0 0
SMALL
GASTEIGER

@<TRIPOS>ATOM
      1 C          60.7774   87.6561    9.4927 C.ar    1  UNL1        0.1726
      2 C          59.8151   87.0023    8.5460 C.ar    1  UNL1        0.0411
      3 C          59.1615   87.8101    7.4642 C.ar    1  UNL1        0.0180
      4 C          59.4703   89.2717    7.3291 C.ar    1  UNL1        0.0540
      5 C          60.4327   89.9256    8.2759 C.ar    1  UNL1        0.0475
      6 C          61.0862   89.1178    9.3577 C.ar    1  UNL1        0.1756
      7 F          62.0486   89.7715   10.3045 F       1  UNL1       -0.2009
      8 N          58.8167   90.0795    6.2474 N.am    1  UNL1       -0.2679
      9 C          59.6591   90.8225    5.2533 C.2     1  UNL1        0.3102
     10 O          61.1552   90.7577    5.3410 O.2     1  UNL1       -0.2521
     11 N          59.0056   91.6303    4.1715 N.am    1  UNL1       -0.2391
     12 C          59.8481   92.3734    3.1774 C.2     1  UNL1        0.2337
     13 O          61.3441   92.3085    3.2651 O.2     1  UNL1       -0.2743
     14 H          57.8348   90.1221    6.1898 H       1  UNL1        0.1564
     15 H          58.0237   91.6729    4.1139 H       1  UNL1        0.1591
     16 C          59.1945   93.1812    2.0956 C.3     1  UNL1        0.1118
     17 C          59.8080   93.2388    0.7280 C.ar    1  UNL1       -0.0129
     18 C          58.9524   93.0350   -0.4870 C.ar    1  UNL1       -0.0015
     19 C          59.5659   93.0927   -1.8546 C.ar    1  UNL1        0.0293
     20 C          61.0350   93.3542   -2.0071 C.ar    1  UNL1        0.1401
     21 F          61.6485   93.4118   -3.3747 F       1  UNL1       -0.2042
     22 C          61.8907   93.5580   -0.7920 C.ar    1  UNL1        0.0293
     23 C          61.2771   93.5003    0.5755 C.ar    1  UNL1       -0.0015
     24 O          61.4310   86.8482   10.5745 O.3     1  UNL1       -0.4505
     25 N          64.8423   83.1855   11.9700 N.pl3   1  UNL1       -0.3421
     26 C          64.0115   83.8522   10.9140 C.ar    1  UNL1        0.1360
     27 N          64.0554   83.3543    9.4997 N.ar    1  UNL1       -0.2288
     28 C          63.2245   84.0210    8.4437 C.ar    1  UNL1        0.1035
     29 C          62.3497   85.1857    8.8020 C.ar    1  UNL1        0.0589
     30 C          62.3058   85.6836   10.2162 C.ar    1  UNL1        0.1572
     31 C          63.1367   85.0168   11.2722 C.ar    1  UNL1        0.1075
     32 H          65.4165   82.4211   11.7348 H       1  UNL1        0.1437
     33 H          64.8135   83.5123   12.8982 H       1  UNL1        0.1437
     34 C          63.0927   85.5148   12.6865 C.1     1  UNL1       -0.0524
     35 C          63.0487   86.0128   14.1007 C.1     1  UNL1       -0.0403
     36 C          63.0048   86.5107   15.5150 C.ar    1  UNL1        0.1228
     37 C          62.7023   85.5606   16.6356 C.ar    1  UNL1        0.0276
     38 C          62.6584   86.0584   18.0499 C.ar    1  UNL1        0.0038
     39 C          62.9169   87.5065   18.3435 C.ar    1  UNL1        0.0207
     40 C          63.2194   88.4567   17.2229 C.ar    1  UNL1        0.0996
     41 N          63.2633   87.9588   15.8087 N.ar    1  UNL1       -0.2356
@<TRIPOS>BOND
     1    25    26    1
     2    26    27   ar
     3    27    28   ar
     4    28    29   ar
     5    29    30   ar
     6    30    24    1
     7    24     1    1
     8     1     2   ar
     9     2     3   ar
    10     3     4   ar
    11     4     8    1
    12     8     9   am
    13     9    10    2
    14     9    11   am
    15    11    12   am
    16    12    13    2
    17    12    16    1
    18    16    17    1
    19    17    18   ar
    20    18    19   ar
    21    19    20   ar
    22    20    21    1
    23    20    22   ar
    24    22    23   ar
    25     4     5   ar
    26     5     6   ar
    27     6     7    1
    28    30    31   ar
    29    31    34    1
    30    34    35    3
    31    35    36    1
    32    36    37   ar
    33    37    38   ar
    34    38    39   ar
    35    39    40   ar
    36    40    41   ar
    37    31    26   ar
    38    41    36   ar
    39     6     1   ar
    40    23    17   ar
    41    25    32    1
    42    25    33    1
    43     8    14    1
    44    11    15    1
@<TRIPOS>MOLECULE
*****
 41 44 0 0 0
SMALL
GASTEIGER

@<TRIPOS>ATOM
      1 C          64.0251   90.0658   15.5353 C.ar    1  UNL1        0.1726
      2 C          64.7818   89.2247   14.5505 C.ar    1  UNL1        0.0411
      3 C          64.6593   87.7302   14.5903 C.ar    1  UNL1        0.0180
      4 C          63.7800   87.0769   15.6150 C.ar    1  UNL1        0.0540
      5 C          63.0232   87.9180   16.5998 C.ar    1  UNL1        0.0475
      6 C          63.1457   89.4124   16.5600 C.ar    1  UNL1        0.1756
      7 F          62.3890   90.2535   17.5448 F       1  UNL1       -0.2009
      8 N          63.6575   85.5824   15.6548 N.am    1  UNL1       -0.2679
      9 C          63.7419   84.7888   14.3848 C.2     1  UNL1        0.3102
     10 O          63.9488   85.4897   13.0748 O.2     1  UNL1       -0.2521
     11 N          63.6194   83.2944   14.4246 N.am    1  UNL1       -0.2391
     12 C          63.7038   82.5008   13.1545 C.2     1  UNL1        0.2337
     13 O          63.9107   83.2017   11.8446 O.2     1  UNL1       -0.2743
     14 H          63.5217   85.1224   16.5146 H       1  UNL1        0.1564
     15 H          63.4836   82.8344   15.2844 H       1  UNL1        0.1591
     16 C          63.5812   81.0064   13.1943 C.3     1  UNL1        0.1118
     17 C          62.2708   80.3706   13.5528 C.ar    1  UNL1       -0.0129
     18 C          62.1474   78.8761   13.5891 C.ar    1  UNL1       -0.0015
     19 C          60.8370   78.2403   13.9476 C.ar    1  UNL1        0.0293
     20 C          59.6500   79.0989   14.2697 C.ar    1  UNL1        0.1401
     21 F          58.3396   78.4631   14.6282 F       1  UNL1       -0.2042
     22 C          59.7734   80.5934   14.2334 C.ar    1  UNL1        0.0293
     23 C          61.0838   81.2292   13.8749 C.ar    1  UNL1       -0.0015
     24 O          64.1476   91.5602   15.4954 O.3     1  UNL1       -0.4505
     25 N          66.6784   92.7056   11.1041 N.pl3   1  UNL1       -0.3421
     26 C          66.5753   92.7717   12.5991 C.ar    1  UNL1        0.1360
     27 N          67.6346   93.4765   13.3935 N.ar    1  UNL1       -0.2288
     28 C          67.5316   93.5427   14.8885 C.ar    1  UNL1        0.1035
     29 C          66.3693   92.9039   15.5891 C.ar    1  UNL1        0.0589
     30 C          65.3100   92.1990   14.7948 C.ar    1  UNL1        0.1572
     31 C          65.4130   92.1329   13.2998 C.ar    1  UNL1        0.1075
     32 H          67.4412   93.1248   10.6443 H       1  UNL1        0.1437
     33 H          65.9831   92.2429   10.5828 H       1  UNL1        0.1437
     34 C          64.3536   91.4280   12.5054 C.1     1  UNL1       -0.0524
     35 C          63.2944   90.7231   11.7112 C.1     1  UNL1       -0.0403
     36 C          62.2350   90.0182   10.9168 C.ar    1  UNL1        0.1228
     37 C          62.5323   88.6930   10.2801 C.ar    1  UNL1        0.0276
     38 C          61.4730   87.9881    9.4858 C.ar    1  UNL1        0.0038
     39 C          60.1164   88.6083    9.3282 C.ar    1  UNL1        0.0207
     40 C          59.8191   89.9335    9.9650 C.ar    1  UNL1        0.0996
     41 N          60.8784   90.6385   10.7593 N.ar    1  UNL1       -0.2356
@<TRIPOS>BOND
     1    25    26    1
     2    26    27   ar
     3    27    28   ar
     4    28    29   ar
     5    29    30   ar
     6    30    24    1
     7    24     1    1
     8     1     2   ar
     9     2     3   ar
    10     3     4   ar
    11     4     8    1
    12     8     9   am
    13     9    10    2
    14     9    11   am
    15    11    12   am
    16    12    13    2
    17    12    16    1
    18    16    17    1
    19    17    18   ar
    20    18    19   ar
    21    19    20   ar
    22    20    21    1
    23    20    22   ar
    24    22    23   ar
    25     4     5   ar
    26     5     6   ar
    27     6     7    1
    28    30    31   ar
    29    31    34    1
    30    34    35    3
    31    35    36    1
    32    36    37   ar
    33    37    38   ar
    34    38    39   ar
    35    39    40   ar
    36    40    41   ar
    37    31    26   ar
    38    41    36   ar
    39     6     1   ar
    40    23    17   ar
    41    25    32    1
    42    25    33    1
    43     8    14    1
    44    11    15    1
@<TRIPOS>MOLECULE
*****
 41 44 0 0 0
SMALL
GASTEIGER

@<TRIPOS>ATOM
      1 C          60.6678   88.0867   10.4170 C.ar    1  UNL1        0.1726
      2 C          62.0721   88.4824   10.0689 C.ar    1  UNL1        0.0411
      3 C          62.8456   89.3852   10.9836 C.ar    1  UNL1        0.0180
      4 C          62.2147   89.8923   12.2464 C.ar    1  UNL1        0.0540
      5 C          60.8103   89.4966   12.5946 C.ar    1  UNL1        0.0475
      6 C          60.0368   88.5938   11.6799 C.ar    1  UNL1        0.1756
      7 F          58.6325   88.1981   12.0280 F       1  UNL1       -0.2009
      8 N          62.9881   90.7951   13.1611 N.am    1  UNL1       -0.2679
      9 C          64.1112   91.6285   12.6188 C.2     1  UNL1        0.3102
     10 O          64.4608   91.5592   11.1617 O.2     1  UNL1       -0.2521
     11 N          64.8846   92.5313   13.5335 N.am    1  UNL1       -0.2391
     12 C          66.0077   93.3648   12.9912 C.2     1  UNL1        0.2337
     13 O          66.3573   93.2954   11.5342 O.2     1  UNL1       -0.2743
     14 H          62.7587   90.8407   14.1174 H       1  UNL1        0.1564
     15 H          64.6552   92.5769   14.4898 H       1  UNL1        0.1591
     16 C          66.7812   94.2676   13.9059 C.3     1  UNL1        0.1118
     17 C          67.7718   93.6871   14.8710 C.ar    1  UNL1       -0.0129
     18 C          68.7567   94.5816   15.5636 C.ar    1  UNL1       -0.0015
     19 C          69.7475   94.0012   16.5288 C.ar    1  UNL1        0.0293
     20 C          69.7532   92.5262   16.8014 C.ar    1  UNL1        0.1401
     21 F          70.7439   91.9457   17.7666 F       1  UNL1       -0.2042
     22 C          68.7683   91.6316   16.1088 C.ar    1  UNL1        0.0293
     23 C          67.7776   92.2121   15.1436 C.ar    1  UNL1       -0.0015
     24 O          59.8943   87.1839    9.5023 O.3     1  UNL1       -0.4505
     25 N          63.6092   83.6646    8.5998 N.pl3   1  UNL1       -0.3421
     26 C          62.4780   84.5157    8.1038 C.ar    1  UNL1        0.1360
     27 N          62.0730   84.4583    6.6607 N.ar    1  UNL1       -0.2288
     28 C          60.9418   85.3093    6.1648 C.ar    1  UNL1        0.1035
     29 C          60.2156   86.2179    7.1119 C.ar    1  UNL1        0.0589
     30 C          60.6206   86.2753    8.5550 C.ar    1  UNL1        0.1572
     31 C          61.7518   85.4242    9.0510 C.ar    1  UNL1        0.1075
     32 H          64.0859   83.0683    7.9781 H       1  UNL1        0.1437
     33 H          63.8750   83.7023    9.5470 H       1  UNL1        0.1437
     34 C          62.1568   85.4817   10.4942 C.1     1  UNL1       -0.0524
     35 C          62.5617   85.5392   11.9373 C.1     1  UNL1       -0.0403
     36 C          62.9667   85.5966   13.3805 C.ar    1  UNL1        0.1228
     37 C          63.9859   86.5993   13.8341 C.ar    1  UNL1        0.0276
     38 C          64.3909   86.6568   15.2772 C.ar    1  UNL1        0.0038
     39 C          63.7766   85.7116   16.2668 C.ar    1  UNL1        0.0207
     40 C          62.7574   84.7089   15.8132 C.ar    1  UNL1        0.0996
     41 N          62.3524   84.6514   14.3701 N.ar    1  UNL1       -0.2356
@<TRIPOS>BOND
     1    25    26    1
     2    26    27   ar
     3    27    28   ar
     4    28    29   ar
     5    29    30   ar
     6    30    24    1
     7    24     1    1
     8     1     2   ar
     9     2     3   ar
    10     3     4   ar
    11     4     8    1
    12     8     9   am
    13     9    10    2
    14     9    11   am
    15    11    12   am
    16    12    13    2
    17    12    16    1
    18    16    17    1
    19    17    18   ar
    20    18    19   ar
    21    19    20   ar
    22    20    21    1
    23    20    22   ar
    24    22    23   ar
    25     4     5   ar
    26     5     6   ar
    27     6     7    1
    28    30    31   ar
    29    31    34    1
    30    34    35    3
    31    35    36    1
    32    36    37   ar
    33    37    38   ar
    34    38    39   ar
    35    39    40   ar
    36    40    41   ar
    37    31    26   ar
    38    41    36   ar
    39     6     1   ar
    40    23    17   ar
    41    25    32    1
    42    25    33    1
    43     8    14    1
    44    11    15    1
@<TRIPOS>MOLECULE
*****
 41 44 0 0 0
SMALL
GASTEIGER

@<TRIPOS>ATOM
      1 C          62.9178   89.9344   11.5028 C.ar    1  UNL1        0.1726
      2 C          63.4127   89.0264   12.5893 C.ar    1  UNL1        0.0411
      3 C          63.2181   87.5436   12.4741 C.ar    1  UNL1        0.0180
      4 C          62.5287   86.9687   11.2724 C.ar    1  UNL1        0.0540
      5 C          62.0338   87.8767   10.1858 C.ar    1  UNL1        0.0475
      6 C          62.2283   89.3596   10.3009 C.ar    1  UNL1        0.1756
      7 F          61.7335   90.2676    9.2144 F       1  UNL1       -0.2009
      8 N          62.3341   85.4859   11.1572 N.am    1  UNL1       -0.2679
      9 C          62.3880   84.6248   12.3842 C.2     1  UNL1        0.3102
     10 O          62.6366   85.2466   13.7265 O.2     1  UNL1       -0.2521
     11 N          62.1935   83.1419   12.2690 N.am    1  UNL1       -0.2391
     12 C          62.2474   82.2809   13.4961 C.2     1  UNL1        0.2337
     13 O          62.4959   82.9026   14.8383 O.2     1  UNL1       -0.2743
     14 H          62.1710   85.0778   10.2762 H       1  UNL1        0.1564
     15 H          62.0303   82.7338   11.3881 H       1  UNL1        0.1591
     16 C          62.0528   80.7980   13.3809 C.3     1  UNL1        0.1118
     17 C          62.4823   80.0797   12.1362 C.ar    1  UNL1       -0.0129
     18 C          62.9617   80.8594   10.9478 C.ar    1  UNL1       -0.0015
     19 C          63.3912   80.1411    9.7030 C.ar    1  UNL1        0.0293
     20 C          63.3414   78.6430    9.6465 C.ar    1  UNL1        0.1401
     21 F          63.7709   77.9247    8.4018 F       1  UNL1       -0.2042
     22 C          62.8620   77.8632   10.8350 C.ar    1  UNL1        0.0293
     23 C          62.4325   78.5816   12.0797 C.ar    1  UNL1       -0.0015
     24 O          63.1124   91.4173   11.6179 O.3     1  UNL1       -0.4505
     25 N          67.6193   91.6475   14.1937 N.pl3   1  UNL1       -0.3421
     26 C          66.7466   92.0979   13.0599 C.ar    1  UNL1        0.1360
     27 N          67.2546   93.1137   12.0802 N.ar    1  UNL1       -0.2288
     28 C          66.3819   93.5641   10.9464 C.ar    1  UNL1        0.1035
     29 C          65.0012   92.9987   10.7923 C.ar    1  UNL1        0.0589
     30 C          64.4932   91.9828   11.7720 C.ar    1  UNL1        0.1572
     31 C          65.3659   91.5324   12.9058 C.ar    1  UNL1        0.1075
     32 H          68.5255   92.0186   14.2949 H       1  UNL1        0.1437
     33 H          67.2859   90.9807   14.8368 H       1  UNL1        0.1437
     34 C          64.8578   90.5165   13.8856 C.1     1  UNL1       -0.0524
     35 C          64.3497   89.5006   14.8652 C.1     1  UNL1       -0.0403
     36 C          63.8416   88.4847   15.8450 C.ar    1  UNL1        0.1228
     37 C          63.0942   88.9297   17.0671 C.ar    1  UNL1        0.0276
     38 C          62.5862   87.9139   18.0468 C.ar    1  UNL1        0.0038
     39 C          62.8254   86.4531   17.8045 C.ar    1  UNL1        0.0207
     40 C          63.5728   86.0081   16.5824 C.ar    1  UNL1        0.0996
     41 N          64.0809   87.0239   15.6027 N.ar    1  UNL1       -0.2356
@<TRIPOS>BOND
     1    25    26    1
     2    26    27   ar
     3    27    28   ar
     4    28    29   ar
     5    29    30   ar
     6    30    24    1
     7    24     1    1
     8     1     2   ar
     9     2     3   ar
    10     3     4   ar
    11     4     8    1
    12     8     9   am
    13     9    10    2
    14     9    11   am
    15    11    12   am
    16    12    13    2
    17    12    16    1
    18    16    17    1
    19    17    18   ar
    20    18    19   ar
    21    19    20   ar
    22    20    21    1
    23    20    22   ar
    24    22    23   ar
    25     4     5   ar
    26     5     6   ar
    27     6     7    1
    28    30    31   ar
    29    31    34    1
    30    34    35    3
    31    35    36    1
    32    36    37   ar
    33    37    38   ar
    34    38    39   ar
    35    39    40   ar
    36    40    41   ar
    37    31    26   ar
    38    41    36   ar
    39     6     1   ar
    40    23    17   ar
    41    25    32    1
    42    25    33    1
    43     8    14    1
    44    11    15    1
