@<TRIPOS>MOLECULE
*****
 66 73 0 0 0
SMALL
GASTEIGER

@<TRIPOS>ATOM
      1 N          62.2256   95.1013   -3.6789 N.3     1  UNL1       -0.1862
      2 C          61.0924   95.0245   -4.6586 C.3     1  UNL1        0.1775
      3 C          59.7129   94.6760   -4.1840 C.2     1  UNL1        0.2452
      4 O          58.5796   94.5993   -5.1638 O.2     1  UNL1       -0.2732
      5 N          59.4665   94.4041   -2.7296 N.am    1  UNL1       -0.2541
      6 C          58.0869   94.0555   -2.2549 C.3     1  UNL1        0.1577
      7 C          57.8406   93.7836   -0.8005 C.2     1  UNL1        0.2445
      8 O          56.4610   93.4351   -0.3258 O.2     1  UNL1       -0.2731
      9 N          58.9738   93.8604    0.1793 N.am    1  UNL1       -0.2705
     10 C          60.3534   94.2089   -0.2953 C.3     1  UNL1        0.1359
     11 C          60.5997   94.4808   -1.7498 C.3     1  UNL1        0.1908
     12 N          61.9793   94.8294   -2.2245 N.am    1  UNL1       -0.1863
     13 C          63.1125   94.9061   -1.2447 C.2     1  UNL1        0.3191
     14 O          62.8661   94.6342    0.2097 O.2     1  UNL1       -0.2512
     15 N          64.4920   95.2547   -1.7193 N.am    1  UNL1       -0.2836
     16 H          64.6537   95.4331   -2.6739 H       1  UNL1        0.1513
     17 C          63.6052   95.4499   -4.1536 C.3     1  UNL1        0.1188
     18 C          64.1411   92.9660   -4.6949 C.2     1  UNL1       -0.0034
     19 C          64.4308   94.4266   -4.8755 C.2     1  UNL1       -0.0071
     20 C          56.9537   93.9788   -3.2346 C.3     1  UNL1        0.0556
     21 C          56.3485   92.6502   -3.5788 C.ar    1  UNL1       -0.0198
     22 C          56.1134   91.6318   -2.5029 C.ar    1  UNL1       -0.0011
     23 C          55.5081   90.3032   -2.8470 C.ar    1  UNL1        0.0363
     24 C          55.1379   89.9930   -4.2671 C.ar    1  UNL1        0.1337
     25 O          54.5326   88.6644   -4.6112 O.3     1  UNL1       -0.5055
     26 C          55.3730   91.0113   -5.3431 C.ar    1  UNL1        0.0363
     27 C          55.9783   92.3399   -4.9990 C.ar    1  UNL1       -0.0011
     28 H          54.3858   88.0282   -3.9391 H       1  UNL1        0.2922
     29 C          58.7274   93.5885    1.6337 C.3     1  UNL1        0.1217
     30 C          59.7370   92.8208    2.4348 C.ar    1  UNL1        0.0135
     31 C          61.1782   92.8169    2.0191 C.ar    1  UNL1       -0.0012
     32 C          62.1877   92.0493    2.8201 C.ar    1  UNL1       -0.0002
     33 C          61.7560   91.2856    4.0367 C.ar    1  UNL1        0.0016
     34 C          60.3148   91.2894    4.4524 C.ar    1  UNL1        0.0214
     35 C          59.5983   90.6350    5.5962 C.ar    1  UNL1        0.0722
     36 C          58.1460   90.9981    5.5021 C.ar    1  UNL1        0.0805
     37 N          57.9649   91.8770    4.3002 N.ar    1  UNL1       -0.3241
     38 C          56.6706   92.4715    3.8296 C.3     1  UNL1        0.1305
     39 C          59.3052   92.0571    3.6514 C.ar    1  UNL1        0.0577
     40 C          60.2243   89.7693    6.6492 C.2     1  UNL1        0.2510
     41 O          61.4229   90.2582    7.4070 O.2     1  UNL1       -0.2698
     42 N          59.6516   88.4147    6.9445 N.am    1  UNL1       -0.2791
     43 H          58.8649   88.0938    6.4472 H       1  UNL1        0.1552
     44 C          60.2775   87.5490    7.9975 C.ar    1  UNL1        0.0701
     45 C          59.9767   87.7946    9.4464 C.ar    1  UNL1        0.0191
     46 C          60.6026   86.9289   10.4994 C.ar    1  UNL1        0.0356
     47 C          61.5292   85.8178   10.1036 C.ar    1  UNL1        0.1319
     48 N          61.8300   85.5722    8.6547 N.ar    1  UNL1       -0.2279
     49 C          61.2041   86.4379    7.6016 C.ar    1  UNL1        0.1149
     50 N          62.1551   84.9521   11.1565 N.pl3   1  UNL1       -0.2904
     51 C          62.5649   83.5473   10.8265 C.3     1  UNL1        0.1095
     52 C          63.1908   82.6816   11.8794 C.3     1  UNL1        0.0939
     53 N          63.4070   83.2205   13.2625 N.3     1  UNL1       -0.2677
     54 C          62.9973   84.6252   13.5926 C.3     1  UNL1        0.0939
     55 C          62.3713   85.4910   12.5396 C.3     1  UNL1        0.1095
     56 C          64.0329   82.3548   14.3154 C.3     1  UNL1        0.1043
     57 C          64.0729   80.8661   14.1360 C.3     1  UNL1        0.1544
     58 O          62.9135   80.0254   14.5827 O.3     1  UNL1       -0.3805
     59 H          62.8345   80.0705   15.5484 H       1  UNL1        0.2105
     60 C          65.6252   95.3314   -0.7396 C.3     1  UNL1        0.1177
     61 C          65.3409   95.4220    0.7304 C.ar    1  UNL1       -0.0025
     62 C          65.2432   96.7636    1.3942 C.ar    1  UNL1       -0.0026
     63 C          64.9589   96.8542    2.8642 C.ar    1  UNL1       -0.0003
     64 C          64.7723   95.6032    3.6705 C.ar    1  UNL1       -0.0000
     65 C          64.8700   94.2615    3.0067 C.ar    1  UNL1       -0.0003
     66 C          65.1543   94.1709    1.5367 C.ar    1  UNL1       -0.0026
@<TRIPOS>BOND
     1    18    19    2
     2    19    17    1
     3    17     1    1
     4     1     2    1
     5     2     3    1
     6     3     4    2
     7     3     5   am
     8     5     6    1
     9     6    20    1
    10    20    21    1
    11    21    22   ar
    12    22    23   ar
    13    23    24   ar
    14    24    25    1
    15    24    26   ar
    16    26    27   ar
    17     6     7    1
    18     7     8    2
    19     7     9   am
    20     9    29    1
    21    29    30    1
    22    30    31   ar
    23    31    32   ar
    24    32    33   ar
    25    33    34   ar
    26    34    35   ar
    27    35    40    1
    28    40    41    2
    29    40    42   am
    30    42    44    1
    31    44    45   ar
    32    45    46   ar
    33    46    47   ar
    34    47    50    1
    35    50    51    1
    36    51    52    1
    37    52    53    1
    38    53    56    1
    39    56    57    1
    40    57    58    1
    41    53    54    1
    42    54    55    1
    43    47    48   ar
    44    48    49   ar
    45    35    36   ar
    46    36    37   ar
    47    37    38    1
    48    37    39   ar
    49     9    10    1
    50    10    11    1
    51    11    12    1
    52    12    13   am
    53    13    14    2
    54    13    15   am
    55    15    60    1
    56    60    61    1
    57    61    62   ar
    58    62    63   ar
    59    63    64   ar
    60    64    65   ar
    61    65    66   ar
    62    12     1    1
    63    66    61   ar
    64    11     5    1
    65    27    21   ar
    66    39    30   ar
    67    39    34   ar
    68    49    44   ar
    69    55    50    1
    70    25    28    1
    71    42    43    1
    72    58    59    1
    73    15    16    1
@<TRIPOS>MOLECULE
*****
 66 73 0 0 0
SMALL
GASTEIGER

@<TRIPOS>ATOM
      1 N          65.8402   89.8660   14.0856 N.3     1  UNL1       -0.1862
      2 C          66.2682   88.6690   14.8817 C.3     1  UNL1        0.1775
      3 C          65.4550   87.4093   14.8381 C.2     1  UNL1        0.2452
      4 O          65.8831   86.2123   15.6343 O.2     1  UNL1       -0.2732
      5 N          64.2138   87.3466   13.9982 N.am    1  UNL1       -0.2541
      6 C          63.4006   86.0869   13.9546 C.3     1  UNL1        0.1577
      7 C          62.1593   86.0243   13.1147 C.2     1  UNL1        0.2445
      8 O          61.3461   84.7646   13.0711 O.2     1  UNL1       -0.2731
      9 N          61.7312   87.2213   12.3185 N.am    1  UNL1       -0.2705
     10 C          62.5444   88.4810   12.3622 C.3     1  UNL1        0.1359
     11 C          63.7857   88.5436   13.2021 C.3     1  UNL1        0.1908
     12 N          64.5989   89.8033   13.2457 N.am    1  UNL1       -0.1863
     13 C          64.1708   91.0003   12.4495 C.2     1  UNL1        0.3191
     14 O          62.9296   90.9377   11.6097 O.2     1  UNL1       -0.2512
     15 N          64.9840   92.2600   12.4932 N.am    1  UNL1       -0.2836
     16 H          65.7987   92.3011   13.0444 H       1  UNL1        0.1513
     17 C          66.6534   91.1257   14.1292 C.3     1  UNL1        0.1188
     18 C          67.9720   92.3202   16.0224 C.2     1  UNL1       -0.0034
     19 C          66.6678   91.9664   15.3714 C.2     1  UNL1       -0.0071
     20 C          63.8286   84.8899   14.7507 C.3     1  UNL1        0.0556
     21 C          63.4809   83.5101   14.2762 C.ar    1  UNL1       -0.0198
     22 C          62.3190   82.7795   14.8812 C.ar    1  UNL1       -0.0011
     23 C          61.9713   81.3997   14.4067 C.ar    1  UNL1        0.0363
     24 C          62.7855   80.7505   13.3271 C.ar    1  UNL1        0.1337
     25 O          62.4378   79.3707   12.8525 O.3     1  UNL1       -0.5055
     26 C          63.9475   81.4811   12.7220 C.ar    1  UNL1        0.0363
     27 C          64.2952   82.8609   13.1966 C.ar    1  UNL1       -0.0011
     28 H          61.7119   78.9143   13.2305 H       1  UNL1        0.2922
     29 C          60.4900   87.1586   11.4787 C.3     1  UNL1        0.1217
     30 C          60.5928   87.2121    9.9831 C.ar    1  UNL1        0.0135
     31 C          61.0478   86.0041    9.2190 C.ar    1  UNL1       -0.0012
     32 C          61.1506   86.0575    7.7235 C.ar    1  UNL1       -0.0002
     33 C          60.7985   87.3189    6.9922 C.ar    1  UNL1        0.0016
     34 C          60.3436   88.5268    7.7563 C.ar    1  UNL1        0.0214
     35 C          59.9322   89.8992    7.3121 C.ar    1  UNL1        0.0722
     36 C          59.5751   90.6940    8.5331 C.ar    1  UNL1        0.0805
     37 N          59.7658   89.8128    9.7318 N.ar    1  UNL1       -0.3241
     38 C          59.5240   90.2025   11.1599 C.3     1  UNL1        0.1305
     39 C          60.2407   88.4734    9.2517 C.ar    1  UNL1        0.0577
     40 C          59.8860   90.3906    5.8955 C.2     1  UNL1        0.2510
     41 O          58.6937   90.0908    5.0362 O.2     1  UNL1       -0.2698
     42 N          61.0322   91.1817    5.3384 N.am    1  UNL1       -0.2791
     43 H          61.8147   91.3784    5.9024 H       1  UNL1        0.1552
     44 C          60.9861   91.6730    3.9219 C.ar    1  UNL1        0.0701
     45 C          62.1763   91.4938    3.0268 C.ar    1  UNL1        0.0191
     46 C          62.1303   91.9851    1.6103 C.ar    1  UNL1        0.0356
     47 C          60.8940   92.6557    1.0889 C.ar    1  UNL1        0.1319
     48 N          59.7038   92.8350    1.9840 N.ar    1  UNL1       -0.2279
     49 C          59.7498   92.3437    3.4005 C.ar    1  UNL1        0.1149
     50 N          60.8479   93.1471   -0.3275 N.pl3   1  UNL1       -0.2904
     51 C          62.0306   93.8603   -0.9128 C.3     1  UNL1        0.1095
     52 C          61.9846   94.3517   -2.3293 C.3     1  UNL1        0.0939
     53 N          60.7559   94.1299   -3.1605 N.3     1  UNL1       -0.2677
     54 C          59.5731   93.4167   -2.5753 C.3     1  UNL1        0.0939
     55 C          59.6192   92.9252   -1.1588 C.3     1  UNL1        0.1095
     56 C          60.7098   94.6213   -4.5770 C.3     1  UNL1        0.1043
     57 C          61.9238   94.5064   -5.4505 C.3     1  UNL1        0.1544
     58 O          61.7760   94.1241   -6.8935 O.3     1  UNL1       -0.3805
     59 H          61.4453   93.2143   -6.9548 H       1  UNL1        0.2105
     60 C          64.5560   93.4570   11.6970 C.3     1  UNL1        0.1177
     61 C          65.5326   94.1404   10.7864 C.ar    1  UNL1       -0.0025
     62 C          65.4310   95.6183   10.5510 C.ar    1  UNL1       -0.0026
     63 C          66.4076   96.3017    9.6404 C.ar    1  UNL1       -0.0003
     64 C          67.4858   95.5071    8.9651 C.ar    1  UNL1       -0.0000
     65 C          67.5875   94.0292    9.2005 C.ar    1  UNL1       -0.0003
     66 C          66.6109   93.3458   10.1111 C.ar    1  UNL1       -0.0026
@<TRIPOS>BOND
     1    18    19    2
     2    19    17    1
     3    17     1    1
     4     1     2    1
     5     2     3    1
     6     3     4    2
     7     3     5   am
     8     5     6    1
     9     6    20    1
    10    20    21    1
    11    21    22   ar
    12    22    23   ar
    13    23    24   ar
    14    24    25    1
    15    24    26   ar
    16    26    27   ar
    17     6     7    1
    18     7     8    2
    19     7     9   am
    20     9    29    1
    21    29    30    1
    22    30    31   ar
    23    31    32   ar
    24    32    33   ar
    25    33    34   ar
    26    34    35   ar
    27    35    40    1
    28    40    41    2
    29    40    42   am
    30    42    44    1
    31    44    45   ar
    32    45    46   ar
    33    46    47   ar
    34    47    50    1
    35    50    51    1
    36    51    52    1
    37    52    53    1
    38    53    56    1
    39    56    57    1
    40    57    58    1
    41    53    54    1
    42    54    55    1
    43    47    48   ar
    44    48    49   ar
    45    35    36   ar
    46    36    37   ar
    47    37    38    1
    48    37    39   ar
    49     9    10    1
    50    10    11    1
    51    11    12    1
    52    12    13   am
    53    13    14    2
    54    13    15   am
    55    15    60    1
    56    60    61    1
    57    61    62   ar
    58    62    63   ar
    59    63    64   ar
    60    64    65   ar
    61    65    66   ar
    62    12     1    1
    63    66    61   ar
    64    11     5    1
    65    27    21   ar
    66    39    30   ar
    67    39    34   ar
    68    49    44   ar
    69    55    50    1
    70    25    28    1
    71    42    43    1
    72    58    59    1
    73    15    16    1
