@<TRIPOS>MOLECULE
*****
 14 15 0 0 0
SMALL
GASTEIGER

@<TRIPOS>ATOM
      1 N          64.6909   84.5071   15.3231 N.pl3   1  UNL1       -0.2979
      2 H          65.5557   84.1939   15.6741 H       1  UNL1        0.1536
      3 C          63.2022   88.6263   16.3558 C.ar    1  UNL1        0.0001
      4 C          62.8806   87.4663   17.2507 C.ar    1  UNL1        0.0013
      5 C          63.3768   86.0933   16.9065 C.ar    1  UNL1        0.0146
      6 C          64.1947   85.8802   15.6673 C.ar    1  UNL1        0.0494
      7 C          64.5163   87.0402   14.7724 C.ar    1  UNL1        0.0146
      8 C          64.0201   88.4132   15.1166 C.ar    1  UNL1        0.0013
      9 C          63.8695   83.6113   14.4441 C.ar    1  UNL1        0.1322
     10 C          64.0204   83.6799   12.9532 C.ar    1  UNL1        0.0344
     11 C          63.1990   82.7840   12.0742 C.ar    1  UNL1        0.0045
     12 C          62.2266   81.8196   12.6860 C.ar    1  UNL1        0.0208
     13 C          62.0756   81.7510   14.1768 C.ar    1  UNL1        0.1003
     14 N          62.8970   82.6469   15.0559 N.ar    1  UNL1       -0.2291
@<TRIPOS>BOND
     1     3     4   ar
     2     4     5   ar
     3     5     6   ar
     4     6     1    1
     5     1     9    1
     6     9    10   ar
     7    10    11   ar
     8    11    12   ar
     9    12    13   ar
    10    13    14   ar
    11     6     7   ar
    12     7     8   ar
    13     8     3   ar
    14    14     9   ar
    15     1     2    1
@<TRIPOS>MOLECULE
*****
 14 15 0 0 0
SMALL
GASTEIGER

@<TRIPOS>ATOM
      1 N          64.3326   84.2709   15.6259 N.pl3   1  UNL1       -0.2979
      2 H          64.8902   83.8115   16.2947 H       1  UNL1        0.1536
      3 C          63.3766   88.6411   16.1125 C.ar    1  UNL1        0.0001
      4 C          64.1755   88.1751   14.9317 C.ar    1  UNL1        0.0013
      5 C          64.4942   86.7184   14.7694 C.ar    1  UNL1        0.0146
      6 C          64.0139   85.7276   15.7881 C.ar    1  UNL1        0.0494
      7 C          63.2150   86.1936   16.9689 C.ar    1  UNL1        0.0146
      8 C          62.8963   87.6503   17.1311 C.ar    1  UNL1        0.0013
      9 C          63.8018   83.5140   14.4446 C.ar    1  UNL1        0.1322
     10 C          62.5964   82.6344   14.5975 C.ar    1  UNL1        0.0344
     11 C          62.0656   81.8775   13.4162 C.ar    1  UNL1        0.0045
     12 C          62.7401   82.0003   12.0821 C.ar    1  UNL1        0.0208
     13 C          63.9455   82.8798   11.9292 C.ar    1  UNL1        0.1003
     14 N          64.4763   83.6367   13.1105 N.ar    1  UNL1       -0.2291
@<TRIPOS>BOND
     1     3     4   ar
     2     4     5   ar
     3     5     6   ar
     4     6     1    1
     5     1     9    1
     6     9    10   ar
     7    10    11   ar
     8    11    12   ar
     9    12    13   ar
    10    13    14   ar
    11     6     7   ar
    12     7     8   ar
    13     8     3   ar
    14    14     9   ar
    15     1     2    1
@<TRIPOS>MOLECULE
*****
 14 15 0 0 0
SMALL
GASTEIGER

@<TRIPOS>ATOM
      1 N          61.5205   87.2037   11.1265 N.pl3   1  UNL1       -0.2979
      2 H          61.0703   86.7838   11.8948 H       1  UNL1        0.1536
      3 C          61.4331   85.2013    7.0975 C.ar    1  UNL1        0.0001
      4 C          60.2177   85.9194    7.6047 C.ar    1  UNL1        0.0013
      5 C          60.2469   86.5869    8.9477 C.ar    1  UNL1        0.0146
      6 C          61.4914   86.5362    9.7835 C.ar    1  UNL1        0.0494
      7 C          62.7067   85.8181    9.2763 C.ar    1  UNL1        0.0146
      8 C          62.6775   85.1507    7.9333 C.ar    1  UNL1        0.0013
      9 C          62.2356   88.5109   11.2990 C.ar    1  UNL1        0.1322
     10 C          62.2796   89.4965   10.1690 C.ar    1  UNL1        0.0344
     11 C          62.9946   90.8038   10.3415 C.ar    1  UNL1        0.0045
     12 C          63.6656   91.1255   11.6439 C.ar    1  UNL1        0.0208
     13 C          63.6216   90.1400   12.7738 C.ar    1  UNL1        0.1003
     14 N          62.9065   88.8327   12.6014 N.ar    1  UNL1       -0.2291
@<TRIPOS>BOND
     1     3     4   ar
     2     4     5   ar
     3     5     6   ar
     4     6     1    1
     5     1     9    1
     6     9    10   ar
     7    10    11   ar
     8    11    12   ar
     9    12    13   ar
    10    13    14   ar
    11     6     7   ar
    12     7     8   ar
    13     8     3   ar
    14    14     9   ar
    15     1     2    1
@<TRIPOS>MOLECULE
*****
 14 15 0 0 0
SMALL
GASTEIGER

@<TRIPOS>ATOM
      1 N          63.4671   84.2802   11.9337 N.pl3   1  UNL1       -0.2979
      2 H          64.2162   84.7474   12.3695 H       1  UNL1        0.1536
      3 C          61.5054   86.0722    8.3018 C.ar    1  UNL1        0.0001
      4 C          62.7195   85.2050    8.1474 C.ar    1  UNL1        0.0013
      5 C          63.3734   84.6076    9.3581 C.ar    1  UNL1        0.0146
      6 C          62.8132   84.8776   10.7231 C.ar    1  UNL1        0.0494
      7 C          61.5992   85.7448   10.8775 C.ar    1  UNL1        0.0146
      8 C          60.9453   86.3422    9.6668 C.ar    1  UNL1        0.0013
      9 C          62.9798   82.9712   12.4803 C.ar    1  UNL1        0.1322
     10 C          63.1638   81.7118   11.6864 C.ar    1  UNL1        0.0344
     11 C          62.6764   80.4027   12.2330 C.ar    1  UNL1        0.0045
     12 C          62.0051   80.3529   13.5734 C.ar    1  UNL1        0.0208
     13 C          61.8211   81.6122   14.3673 C.ar    1  UNL1        0.1003
     14 N          62.3085   82.9214   13.8207 N.ar    1  UNL1       -0.2291
@<TRIPOS>BOND
     1     3     4   ar
     2     4     5   ar
     3     5     6   ar
     4     6     1    1
     5     1     9    1
     6     9    10   ar
     7    10    11   ar
     8    11    12   ar
     9    12    13   ar
    10    13    14   ar
    11     6     7   ar
    12     7     8   ar
    13     8     3   ar
    14    14     9   ar
    15     1     2    1
@<TRIPOS>MOLECULE
*****
 14 15 0 0 0
SMALL
GASTEIGER

@<TRIPOS>ATOM
      1 N          63.4086   84.4174   11.8851 N.pl3   1  UNL1       -0.2979
      2 H          64.1445   84.9099   12.3153 H       1  UNL1        0.1536
      3 C          61.3910   86.1186    8.2402 C.ar    1  UNL1        0.0001
      4 C          60.8419   86.4088    9.6055 C.ar    1  UNL1        0.0013
      5 C          61.5144   85.8418   10.8205 C.ar    1  UNL1        0.0146
      6 C          62.7360   84.9845   10.6701 C.ar    1  UNL1        0.0494
      7 C          63.2851   84.6942    9.3048 C.ar    1  UNL1        0.0146
      8 C          62.6126   85.2613    8.0898 C.ar    1  UNL1        0.0013
      9 C          62.9598   83.1000   12.4445 C.ar    1  UNL1        0.1322
     10 C          63.1416   81.8443   11.6443 C.ar    1  UNL1        0.0344
     11 C          62.6929   80.5269   12.2038 C.ar    1  UNL1        0.0045
     12 C          62.0624   80.4651   13.5634 C.ar    1  UNL1        0.0208
     13 C          61.8806   81.7207   14.3636 C.ar    1  UNL1        0.1003
     14 N          62.3293   83.0382   13.8042 N.ar    1  UNL1       -0.2291
@<TRIPOS>BOND
     1     3     4   ar
     2     4     5   ar
     3     5     6   ar
     4     6     1    1
     5     1     9    1
     6     9    10   ar
     7    10    11   ar
     8    11    12   ar
     9    12    13   ar
    10    13    14   ar
    11     6     7   ar
    12     7     8   ar
    13     8     3   ar
    14    14     9   ar
    15     1     2    1
@<TRIPOS>MOLECULE
*****
 14 15 0 0 0
SMALL
GASTEIGER

@<TRIPOS>ATOM
      1 N          62.7608   83.7053   12.6167 N.pl3   1  UNL1       -0.2979
      2 H          62.6472   82.7279   12.6473 H       1  UNL1        0.1536
      3 C          62.4580   85.8841    8.6910 C.ar    1  UNL1        0.0001
      4 C          63.3551   84.6888    8.8181 C.ar    1  UNL1        0.0013
      5 C          63.4560   83.9625   10.1267 C.ar    1  UNL1        0.0146
      6 C          62.6599   84.4316   11.3082 C.ar    1  UNL1        0.0494
      7 C          61.7627   85.6270   11.1811 C.ar    1  UNL1        0.0146
      8 C          61.6618   86.3532    9.8725 C.ar    1  UNL1        0.0013
      9 C          63.0348   84.4683   13.8788 C.ar    1  UNL1        0.1322
     10 C          64.2538   85.3366   13.9806 C.ar    1  UNL1        0.0344
     11 C          64.5278   86.0996   15.2426 C.ar    1  UNL1        0.0045
     12 C          63.5830   85.9943   16.4029 C.ar    1  UNL1        0.0208
     13 C          62.3641   85.1260   16.3011 C.ar    1  UNL1        0.1003
     14 N          62.0900   84.3630   15.0390 N.ar    1  UNL1       -0.2291
@<TRIPOS>BOND
     1     3     4   ar
     2     4     5   ar
     3     5     6   ar
     4     6     1    1
     5     1     9    1
     6     9    10   ar
     7    10    11   ar
     8    11    12   ar
     9    12    13   ar
    10    13    14   ar
    11     6     7   ar
    12     7     8   ar
    13     8     3   ar
    14    14     9   ar
    15     1     2    1
@<TRIPOS>MOLECULE
*****
 14 15 0 0 0
SMALL
GASTEIGER

@<TRIPOS>ATOM
      1 N          63.2148   84.6361   12.4061 N.pl3   1  UNL1       -0.2979
      2 H          63.9217   85.0916   12.9180 H       1  UNL1        0.1536
      3 C          62.1062   80.3874   13.3907 C.ar    1  UNL1        0.0001
      4 C          62.7944   80.7021   12.0956 C.ar    1  UNL1        0.0013
      5 C          63.1640   82.1183   11.7674 C.ar    1  UNL1        0.0146
      6 C          62.8453   83.2199   12.7343 C.ar    1  UNL1        0.0494
      7 C          62.1570   82.9052   14.0294 C.ar    1  UNL1        0.0146
      8 C          61.7875   81.4890   14.3576 C.ar    1  UNL1        0.0013
      9 C          62.5073   85.3583   11.2980 C.ar    1  UNL1        0.1322
     10 C          62.8991   85.1109    9.8713 C.ar    1  UNL1        0.0344
     11 C          62.1916   85.8330    8.7633 C.ar    1  UNL1        0.0045
     12 C          61.0923   86.8027    9.0818 C.ar    1  UNL1        0.0208
     13 C          60.7006   87.0502   10.5084 C.ar    1  UNL1        0.1003
     14 N          61.4081   86.3279   11.6166 N.ar    1  UNL1       -0.2291
@<TRIPOS>BOND
     1     3     4   ar
     2     4     5   ar
     3     5     6   ar
     4     6     1    1
     5     1     9    1
     6     9    10   ar
     7    10    11   ar
     8    11    12   ar
     9    12    13   ar
    10    13    14   ar
    11     6     7   ar
    12     7     8   ar
    13     8     3   ar
    14    14     9   ar
    15     1     2    1
@<TRIPOS>MOLECULE
*****
 14 15 0 0 0
SMALL
GASTEIGER

@<TRIPOS>ATOM
      1 N          66.0782   92.3391   12.2773 N.pl3   1  UNL1       -0.2979
      2 H          65.2429   91.8256   12.1886 H       1  UNL1        0.1536
      3 C          67.8494   94.3920    8.6859 C.ar    1  UNL1        0.0001
      4 C          68.2299   92.9764    9.0041 C.ar    1  UNL1        0.0013
      5 C          67.6395   92.2921   10.2013 C.ar    1  UNL1        0.0146
      6 C          66.6686   93.0234   11.0802 C.ar    1  UNL1        0.0494
      7 C          66.2881   94.4390   10.7619 C.ar    1  UNL1        0.0146
      8 C          66.8785   95.1233    9.5648 C.ar    1  UNL1        0.0013
      9 C          66.7603   92.4372   13.6096 C.ar    1  UNL1        0.1322
     10 C          65.9445   92.5186   14.8658 C.ar    1  UNL1        0.0344
     11 C          66.6267   92.6167   16.1980 C.ar    1  UNL1        0.0045
     12 C          68.1246   92.6335   16.2742 C.ar    1  UNL1        0.0208
     13 C          68.9404   92.5522   15.0181 C.ar    1  UNL1        0.1003
     14 N          68.2583   92.4540   13.6858 N.ar    1  UNL1       -0.2291
@<TRIPOS>BOND
     1     3     4   ar
     2     4     5   ar
     3     5     6   ar
     4     6     1    1
     5     1     9    1
     6     9    10   ar
     7    10    11   ar
     8    11    12   ar
     9    12    13   ar
    10    13    14   ar
    11     6     7   ar
    12     7     8   ar
    13     8     3   ar
    14    14     9   ar
    15     1     2    1
@<TRIPOS>MOLECULE
*****
 14 15 0 0 0
SMALL
GASTEIGER

@<TRIPOS>ATOM
      1 N          60.6670   89.9665    9.7791 N.pl3   1  UNL1       -0.2979
      2 H          59.9817   90.6446    9.5796 H       1  UNL1        0.1536
      3 C          60.4479   85.9091    7.8452 C.ar    1  UNL1        0.0001
      4 C          61.5811   86.2385    8.7710 C.ar    1  UNL1        0.0013
      5 C          61.6542   87.5909    9.4157 C.ar    1  UNL1        0.0146
      6 C          60.5940   88.6140    9.1345 C.ar    1  UNL1        0.0494
      7 C          59.4607   88.2847    8.2087 C.ar    1  UNL1        0.0146
      8 C          59.3877   86.9323    7.5640 C.ar    1  UNL1        0.0013
      9 C          61.7842   90.2858   10.7277 C.ar    1  UNL1        0.1322
     10 C          62.9415   91.1227   10.2690 C.ar    1  UNL1        0.0344
     11 C          64.0587   91.4420   11.2176 C.ar    1  UNL1        0.0045
     12 C          64.0186   90.9246   12.6249 C.ar    1  UNL1        0.0208
     13 C          62.8614   90.0878   13.0837 C.ar    1  UNL1        0.1003
     14 N          61.7441   89.7684   12.1351 N.ar    1  UNL1       -0.2291
@<TRIPOS>BOND
     1     3     4   ar
     2     4     5   ar
     3     5     6   ar
     4     6     1    1
     5     1     9    1
     6     9    10   ar
     7    10    11   ar
     8    11    12   ar
     9    12    13   ar
    10    13    14   ar
    11     6     7   ar
    12     7     8   ar
    13     8     3   ar
    14    14     9   ar
    15     1     2    1
