@<TRIPOS>MOLECULE
*****
 17 19 0 0 0
SMALL
GASTEIGER

@<TRIPOS>ATOM
      1 C          66.3719   92.6983   13.0296 C.2     1  UNL1        0.0872
      2 N          66.9665   93.2092   14.3084 N.2     1  UNL1       -0.2264
      3 C          66.1428   92.6821   15.4458 C.2     1  UNL1        0.1945
      4 N          65.0391   91.8453   14.8699 N.2     1  UNL1       -0.2415
      5 C          65.1807   91.8553   13.3766 C.3     1  UNL1        0.1669
      6 C          67.8944   93.5455    8.8806 C.ar    1  UNL1        0.0000
      7 C          66.9989   94.5337    9.5672 C.ar    1  UNL1        0.0000
      8 C          66.4914   94.2513   10.9502 C.ar    1  UNL1        0.0012
      9 C          66.8794   92.9807   11.6466 C.ar    1  UNL1        0.0158
     10 C          67.7749   91.9925   10.9599 C.ar    1  UNL1        0.0012
     11 C          68.2824   92.2749    9.5769 C.ar    1  UNL1        0.0000
     12 C          64.2878   91.1467   12.4016 C.ar    1  UNL1        0.0055
     13 C          64.0095   91.7564   11.0596 C.ar    1  UNL1       -0.0020
     14 C          63.1166   91.0479   10.0845 C.ar    1  UNL1       -0.0003
     15 C          62.5020   89.7297   10.4514 C.ar    1  UNL1       -0.0000
     16 C          62.7804   89.1200   11.7934 C.ar    1  UNL1       -0.0003
     17 C          63.6733   89.8286   12.7684 C.ar    1  UNL1       -0.0020
@<TRIPOS>BOND
     1     6     7   ar
     2     7     8   ar
     3     8     9   ar
     4     9     1    1
     5     1     2    2
     6     2     3    1
     7     3     4    2
     8     4     5    1
     9     5    12    1
    10    12    13   ar
    11    13    14   ar
    12    14    15   ar
    13    15    16   ar
    14    16    17   ar
    15     9    10   ar
    16    10    11   ar
    17    11     6   ar
    18     5     1    1
    19    17    12   ar
@<TRIPOS>MOLECULE
*****
 17 19 0 0 0
SMALL
GASTEIGER

@<TRIPOS>ATOM
      1 C          65.1577   91.8246   13.3907 C.2     1  UNL1        0.0872
      2 N          65.0176   91.7883   14.8837 N.2     1  UNL1       -0.2264
      3 C          66.1133   92.6264   15.4727 C.2     1  UNL1        0.1945
      4 N          66.9307   93.1807   14.3437 N.2     1  UNL1       -0.2415
      5 C          66.3401   92.6852   13.0570 C.3     1  UNL1        0.1669
      6 C          62.4981   89.7213   10.4323 C.ar    1  UNL1        0.0000
      7 C          63.1087   91.0459   10.0824 C.ar    1  UNL1        0.0000
      8 C          63.9952   91.7470   11.0685 C.ar    1  UNL1        0.0012
      9 C          64.2712   91.1235   12.4045 C.ar    1  UNL1        0.0158
     10 C          63.6606   89.7989   12.7544 C.ar    1  UNL1        0.0012
     11 C          62.7741   89.0978   11.7683 C.ar    1  UNL1        0.0000
     12 C          66.8436   92.9958   11.6786 C.ar    1  UNL1        0.0055
     13 C          66.4580   94.2828   11.0115 C.ar    1  UNL1       -0.0020
     14 C          66.9614   94.5934    9.6331 C.ar    1  UNL1       -0.0003
     15 C          67.8505   93.6170    8.9216 C.ar    1  UNL1       -0.0000
     16 C          68.2361   92.3300    9.5887 C.ar    1  UNL1       -0.0003
     17 C          67.7326   92.0194   10.9671 C.ar    1  UNL1       -0.0020
@<TRIPOS>BOND
     1     6     7   ar
     2     7     8   ar
     3     8     9   ar
     4     9     1    1
     5     1     2    2
     6     2     3    1
     7     3     4    2
     8     4     5    1
     9     5    12    1
    10    12    13   ar
    11    13    14   ar
    12    14    15   ar
    13    15    16   ar
    14    16    17   ar
    15     9    10   ar
    16    10    11   ar
    17    11     6   ar
    18     5     1    1
    19    17    12   ar
@<TRIPOS>MOLECULE
*****
 17 19 0 0 0
SMALL
GASTEIGER

@<TRIPOS>ATOM
      1 C          65.0278   92.0864   11.5191 C.2     1  UNL1        0.0872
      2 N          63.7797   91.4867   10.9426 N.2     1  UNL1       -0.2264
      3 C          63.1200   90.6700   12.0140 C.2     1  UNL1        0.1945
      4 N          63.9605   90.7651   13.2528 N.2     1  UNL1       -0.2415
      5 C          65.1396   91.6404   12.9469 C.3     1  UNL1        0.1669
      6 C          67.9278   94.7550    9.3469 C.ar    1  UNL1        0.0000
      7 C          66.7809   95.3542   10.1055 C.ar    1  UNL1        0.0000
      8 C          65.8142   94.4646   10.8295 C.ar    1  UNL1        0.0012
      9 C          65.9945   92.9759   10.7951 C.ar    1  UNL1        0.0158
     10 C          67.1414   92.3768   10.0365 C.ar    1  UNL1        0.0012
     11 C          68.1081   93.2663    9.3124 C.ar    1  UNL1        0.0000
     12 C          66.2376   92.0057   13.9014 C.ar    1  UNL1        0.0055
     13 C          65.9019   92.4954   15.2789 C.ar    1  UNL1       -0.0020
     14 C          66.9999   92.8607   16.2333 C.ar    1  UNL1       -0.0003
     15 C          68.4336   92.7362   15.8103 C.ar    1  UNL1       -0.0000
     16 C          68.7693   92.2465   14.4328 C.ar    1  UNL1       -0.0003
     17 C          67.6713   91.8812   13.4784 C.ar    1  UNL1       -0.0020
@<TRIPOS>BOND
     1     6     7   ar
     2     7     8   ar
     3     8     9   ar
     4     9     1    1
     5     1     2    2
     6     2     3    1
     7     3     4    2
     8     4     5    1
     9     5    12    1
    10    12    13   ar
    11    13    14   ar
    12    14    15   ar
    13    15    16   ar
    14    16    17   ar
    15     9    10   ar
    16    10    11   ar
    17    11     6   ar
    18     5     1    1
    19    17    12   ar
@<TRIPOS>MOLECULE
*****
 17 19 0 0 0
SMALL
GASTEIGER

@<TRIPOS>ATOM
      1 C          65.1047   91.6452   12.9325 C.2     1  UNL1        0.0872
      2 N          63.9180   90.7780   13.2318 N.2     1  UNL1       -0.2264
      3 C          63.0865   90.6842   11.9868 C.2     1  UNL1        0.1945
      4 N          63.7594   91.4935   10.9181 N.2     1  UNL1       -0.2415
      5 C          65.0067   92.0874   11.5026 C.3     1  UNL1        0.1669
      6 C          68.3831   92.7298   15.8179 C.ar    1  UNL1        0.0000
      7 C          66.9475   92.8392   16.2383 C.ar    1  UNL1        0.0000
      8 C          65.8546   92.4777   15.2766 C.ar    1  UNL1        0.0012
      9 C          66.1975   92.0067   13.8943 C.ar    1  UNL1        0.0158
     10 C          67.6332   91.8973   13.4739 C.ar    1  UNL1        0.0012
     11 C          68.7260   92.2589   14.4357 C.ar    1  UNL1        0.0000
     12 C          65.9843   92.9689   10.7833 C.ar    1  UNL1        0.0055
     13 C          65.8127   94.4588   10.8118 C.ar    1  UNL1       -0.0020
     14 C          66.7903   95.3402   10.0925 C.ar    1  UNL1       -0.0003
     15 C          67.9395   94.7318    9.3448 C.ar    1  UNL1       -0.0000
     16 C          68.1111   93.2419    9.3163 C.ar    1  UNL1       -0.0003
     17 C          67.1335   92.3605   10.0356 C.ar    1  UNL1       -0.0020
@<TRIPOS>BOND
     1     6     7   ar
     2     7     8   ar
     3     8     9   ar
     4     9     1    1
     5     1     2    2
     6     2     3    1
     7     3     4    2
     8     4     5    1
     9     5    12    1
    10    12    13   ar
    11    13    14   ar
    12    14    15   ar
    13    15    16   ar
    14    16    17   ar
    15     9    10   ar
    16    10    11   ar
    17    11     6   ar
    18     5     1    1
    19    17    12   ar
@<TRIPOS>MOLECULE
*****
 17 19 0 0 0
SMALL
GASTEIGER

@<TRIPOS>ATOM
      1 C          63.1891   82.6102   13.6591 C.2     1  UNL1        0.0872
      2 N          63.1934   81.2084   14.1928 N.2     1  UNL1       -0.2264
      3 C          62.9070   80.2772   13.0522 C.2     1  UNL1        0.1945
      4 N          62.7257   81.1036   11.8136 N.2     1  UNL1       -0.2415
      5 C          62.9000   82.5454   12.1887 C.3     1  UNL1        0.1669
      6 C          63.9156   86.3529   16.0496 C.ar    1  UNL1        0.0000
      7 C          62.7244   85.4917   16.3483 C.ar    1  UNL1        0.0000
      8 C          62.4822   84.2441   15.5514 C.ar    1  UNL1        0.0012
      9 C          63.4312   83.8578   14.4560 C.ar    1  UNL1        0.0158
     10 C          64.6225   84.7190   14.1574 C.ar    1  UNL1        0.0012
     11 C          64.8646   85.9666   14.9542 C.ar    1  UNL1        0.0000
     12 C          62.8025   83.7168   11.2569 C.ar    1  UNL1        0.0055
     13 C          62.0541   84.9477   11.6753 C.ar    1  UNL1       -0.0020
     14 C          61.9565   86.1191   10.7434 C.ar    1  UNL1       -0.0003
     15 C          62.6072   86.0597    9.3932 C.ar    1  UNL1       -0.0000
     16 C          63.3556   84.8289    8.9749 C.ar    1  UNL1       -0.0003
     17 C          63.4531   83.6575    9.9067 C.ar    1  UNL1       -0.0020
@<TRIPOS>BOND
     1     6     7   ar
     2     7     8   ar
     3     8     9   ar
     4     9     1    1
     5     1     2    2
     6     2     3    1
     7     3     4    2
     8     4     5    1
     9     5    12    1
    10    12    13   ar
    11    13    14   ar
    12    14    15   ar
    13    15    16   ar
    14    16    17   ar
    15     9    10   ar
    16    10    11   ar
    17    11     6   ar
    18     5     1    1
    19    17    12   ar
@<TRIPOS>MOLECULE
*****
 17 19 0 0 0
SMALL
GASTEIGER

@<TRIPOS>ATOM
      1 C          62.8963   82.5483   12.1877 C.2     1  UNL1        0.0872
      2 N          62.7283   81.1062   11.8106 N.2     1  UNL1       -0.2264
      3 C          62.9148   80.2788   13.0478 C.2     1  UNL1        0.1945
      4 N          63.1981   81.2095   14.1895 N.2     1  UNL1       -0.2415
      5 C          63.1867   82.6121   13.6579 C.3     1  UNL1        0.1669
      6 C          62.5841   86.0655    9.3981 C.ar    1  UNL1        0.0000
      7 C          63.3451   84.8422    8.9804 C.ar    1  UNL1        0.0000
      8 C          63.4491   83.6698    9.9103 C.ar    1  UNL1        0.0012
      9 C          62.7923   83.7207   11.2578 C.ar    1  UNL1        0.0158
     10 C          62.0313   84.9440   11.6754 C.ar    1  UNL1        0.0012
     11 C          61.9272   86.1164   10.7456 C.ar    1  UNL1        0.0000
     12 C          63.4239   83.8595   14.4565 C.ar    1  UNL1        0.0055
     13 C          62.4803   84.2340   15.5608 C.ar    1  UNL1       -0.0020
     14 C          62.7175   85.4814   16.3593 C.ar    1  UNL1       -0.0003
     15 C          63.8984   86.3544   16.0536 C.ar    1  UNL1       -0.0000
     16 C          64.8419   85.9800   14.9493 C.ar    1  UNL1       -0.0003
     17 C          64.6047   84.7325   14.1508 C.ar    1  UNL1       -0.0020
@<TRIPOS>BOND
     1     6     7   ar
     2     7     8   ar
     3     8     9   ar
     4     9     1    1
     5     1     2    2
     6     2     3    1
     7     3     4    2
     8     4     5    1
     9     5    12    1
    10    12    13   ar
    11    13    14   ar
    12    14    15   ar
    13    15    16   ar
    14    16    17   ar
    15     9    10   ar
    16    10    11   ar
    17    11     6   ar
    18     5     1    1
    19    17    12   ar
@<TRIPOS>MOLECULE
*****
 17 19 0 0 0
SMALL
GASTEIGER

@<TRIPOS>ATOM
      1 C          63.6711   90.2417   12.8220 C.2     1  UNL1        0.0872
      2 N          64.3296   91.4680   12.2630 N.2     1  UNL1       -0.2264
      3 C          65.4094   91.8893   13.2151 C.2     1  UNL1        0.1945
      4 N          65.4183   90.9233   14.3626 N.2     1  UNL1       -0.2415
      5 C          64.3440   89.9051   14.1197 C.3     1  UNL1        0.1669
      6 C          60.2737   87.9713   10.9372 C.ar    1  UNL1        0.0000
      7 C          60.0242   89.3111   11.5636 C.ar    1  UNL1        0.0000
      8 C          61.1566   90.0679   12.1919 C.ar    1  UNL1        0.0012
      9 C          62.5386   89.4849   12.1938 C.ar    1  UNL1        0.0158
     10 C          62.7882   88.1450   11.5674 C.ar    1  UNL1        0.0012
     11 C          61.6557   87.3882   10.9391 C.ar    1  UNL1        0.0000
     12 C          64.0025   88.7525   15.0170 C.ar    1  UNL1        0.0055
     13 C          63.2445   88.9914   16.2892 C.ar    1  UNL1       -0.0020
     14 C          62.9030   87.8389   17.1864 C.ar    1  UNL1       -0.0003
     15 C          63.3195   86.4475   16.8116 C.ar    1  UNL1       -0.0000
     16 C          64.0775   86.2086   15.5394 C.ar    1  UNL1       -0.0003
     17 C          64.4189   87.3612   14.6422 C.ar    1  UNL1       -0.0020
@<TRIPOS>BOND
     1     6     7   ar
     2     7     8   ar
     3     8     9   ar
     4     9     1    1
     5     1     2    2
     6     2     3    1
     7     3     4    2
     8     4     5    1
     9     5    12    1
    10    12    13   ar
    11    13    14   ar
    12    14    15   ar
    13    15    16   ar
    14    16    17   ar
    15     9    10   ar
    16    10    11   ar
    17    11     6   ar
    18     5     1    1
    19    17    12   ar
@<TRIPOS>MOLECULE
*****
 17 19 0 0 0
SMALL
GASTEIGER

@<TRIPOS>ATOM
      1 C          61.0230   88.5609    9.3162 C.2     1  UNL1        0.0872
      2 N          59.9828   89.2636    8.4951 N.2     1  UNL1       -0.2264
      3 C          59.2713   88.2338    7.6684 C.2     1  UNL1        0.1945
      4 N          59.8717   86.8947    7.9787 N.2     1  UNL1       -0.2415
      5 C          60.9543   87.0969    8.9970 C.3     1  UNL1        0.1669
      6 C          63.8527   90.5039   12.2262 C.ar    1  UNL1        0.0000
      7 C          63.5064   91.1957   10.9411 C.ar    1  UNL1        0.0000
      8 C          62.5631   90.5481    9.9712 C.ar    1  UNL1        0.0012
      9 C          61.9662   89.2086   10.2862 C.ar    1  UNL1        0.0158
     10 C          62.3125   88.5167   11.5712 C.ar    1  UNL1        0.0012
     11 C          63.2558   89.1643   12.5412 C.ar    1  UNL1        0.0000
     12 C          61.8169   86.0234    9.5918 C.ar    1  UNL1        0.0055
     13 C          62.8499   85.3377    8.7476 C.ar    1  UNL1       -0.0020
     14 C          63.7125   84.2642    9.3423 C.ar    1  UNL1       -0.0003
     15 C          63.5420   83.8765   10.7813 C.ar    1  UNL1       -0.0000
     16 C          62.5090   84.5622   11.6255 C.ar    1  UNL1       -0.0003
     17 C          61.6464   85.6357   11.0307 C.ar    1  UNL1       -0.0020
@<TRIPOS>BOND
     1     6     7   ar
     2     7     8   ar
     3     8     9   ar
     4     9     1    1
     5     1     2    2
     6     2     3    1
     7     3     4    2
     8     4     5    1
     9     5    12    1
    10    12    13   ar
    11    13    14   ar
    12    14    15   ar
    13    15    16   ar
    14    16    17   ar
    15     9    10   ar
    16    10    11   ar
    17    11     6   ar
    18     5     1    1
    19    17    12   ar
@<TRIPOS>MOLECULE
*****
 17 19 0 0 0
SMALL
GASTEIGER

@<TRIPOS>ATOM
      1 C          60.9796   87.0976    8.9813 C.2     1  UNL1        0.0872
      2 N          59.9055   86.9083    7.9515 N.2     1  UNL1       -0.2264
      3 C          59.3123   88.2522    7.6480 C.2     1  UNL1        0.1945
      4 N          60.0198   89.2720    8.4902 N.2     1  UNL1       -0.2415
      5 C          61.0502   88.5584    9.3143 C.3     1  UNL1        0.1669
      6 C          63.5403   83.8525   10.7597 C.ar    1  UNL1        0.0000
      7 C          62.5048   84.5370   11.6018 C.ar    1  UNL1        0.0000
      8 C          61.6513   85.6187   11.0091 C.ar    1  UNL1        0.0012
      9 C          61.8332   86.0159    9.5741 C.ar    1  UNL1        0.0158
     10 C          62.8686   85.3314    8.7320 C.ar    1  UNL1        0.0012
     11 C          63.7222   84.2497    9.3247 C.ar    1  UNL1        0.0000
     12 C          61.9868   89.1941   10.2985 C.ar    1  UNL1        0.0055
     13 C          62.5537   90.5554   10.0229 C.ar    1  UNL1       -0.0020
     14 C          63.4903   91.1911   11.0070 C.ar    1  UNL1       -0.0003
     15 C          63.8601   90.4657   12.2668 C.ar    1  UNL1       -0.0000
     16 C          63.2932   89.1045   12.5424 C.ar    1  UNL1       -0.0003
     17 C          62.3566   88.4688   11.5582 C.ar    1  UNL1       -0.0020
@<TRIPOS>BOND
     1     6     7   ar
     2     7     8   ar
     3     8     9   ar
     4     9     1    1
     5     1     2    2
     6     2     3    1
     7     3     4    2
     8     4     5    1
     9     5    12    1
    10    12    13   ar
    11    13    14   ar
    12    14    15   ar
    13    15    16   ar
    14    16    17   ar
    15     9    10   ar
    16    10    11   ar
    17    11     6   ar
    18     5     1    1
    19    17    12   ar
