@<TRIPOS>MOLECULE
*****
 36 38 0 0 0
SMALL
GASTEIGER

@<TRIPOS>ATOM
      1 C          64.5706   91.1155   14.1623 C.ar    1  UNL1        0.2093
      2 N          66.0035   91.4888   14.4023 N.ar    1  UNL1       -0.1604
      3 C          66.8227   92.0732   13.2900 C.ar    1  UNL1        0.3558
      4 O          68.2556   92.4465   13.5300 O.2     1  UNL1       -0.2442
      5 N          66.2091   92.2844   11.9376 N.ar    1  UNL1       -0.2325
      6 C          64.7762   91.9111   11.6976 C.ar    1  UNL1        0.3372
      7 O          64.1626   92.1223   10.3453 O.2     1  UNL1       -0.2461
      8 N          63.9570   91.3267   12.8100 N.ar    1  UNL1       -0.2498
      9 N          63.7514   90.5311   15.2747 N.pl3   1  UNL1       -0.2836
     10 H          63.2191   91.1208   15.8563 H       1  UNL1        0.1550
     11 C          63.7267   86.0827   15.9535 C.ar    1  UNL1        0.1657
     12 C          64.4155   86.6538   14.7496 C.ar    1  UNL1        0.0405
     13 C          64.4237   88.1367   14.5233 C.ar    1  UNL1        0.0179
     14 C          63.7432   89.0483   15.5010 C.ar    1  UNL1        0.0529
     15 C          63.0545   88.4771   16.7048 C.ar    1  UNL1        0.0474
     16 C          63.0462   86.9943   16.9311 C.ar    1  UNL1        0.1750
     17 F          62.3574   86.4232   18.1350 F       1  UNL1       -0.2009
     18 O          63.7185   84.5999   16.1797 O.3     1  UNL1       -0.4769
     19 C          62.2011   82.9549   14.8601 C.3     1  UNL1        0.0472
     20 C          63.5116   83.6660   15.0243 C.3     1  UNL1        0.1662
     21 C          64.6152   83.4432   14.0331 C.3     1  UNL1        0.0472
     22 C          67.0283   92.8688   10.8253 C.3     1  UNL1        0.1202
     23 C          66.8827   94.3184   10.4683 C.3     1  UNL1        0.0532
     24 C          66.2141   94.5758   11.7861 C.3     1  UNL1        0.0075
     25 C          67.5513   94.0611    9.1504 C.3     1  UNL1        0.0075
     26 C          66.7370   95.7680   10.1113 C.2     1  UNL1        0.0515
     27 O          67.4343   96.3163    8.9016 O.co2   1  UNL1       -0.5491
     28 O          65.8942   96.6694   10.9639 O.co2   1  UNL1       -0.5491
     29 C          62.5242   90.9534   12.5700 C.3     1  UNL1        0.1399
     30 C          62.1856   89.8688   11.5907 C.ar    1  UNL1        0.0007
     31 C          61.2820   90.1617   10.4299 C.ar    1  UNL1       -0.0015
     32 C          60.9434   89.0771    9.4506 C.ar    1  UNL1        0.0111
     33 C          61.5084   87.6995    9.6322 C.ar    1  UNL1        0.0577
     34 CL         61.1699   86.6149    8.6530 Cl      1  UNL1       -0.0822
     35 C          62.4120   87.4066   10.7931 C.ar    1  UNL1        0.0111
     36 C          62.7506   88.4912   11.7723 C.ar    1  UNL1       -0.0015
@<TRIPOS>UNITY_ATOM_ATTR
27 1
charge -1
@<TRIPOS>BOND
     1    19    20    1
     2    20    21    1
     3    20    18    1
     4    18    11    1
     5    11    12   ar
     6    12    13   ar
     7    13    14   ar
     8    14     9    1
     9     9     1    1
    10     1     2   ar
    11     2     3   ar
    12     3     4    2
    13     3     5   ar
    14     5    22    1
    15    22    23    1
    16    23    24    1
    17    23    25    1
    18    23    26    1
    19    26    27   ar
    20    26    28   ar
    21     5     6   ar
    22     6     7    2
    23     6     8   ar
    24     8    29    1
    25    29    30    1
    26    30    31   ar
    27    31    32   ar
    28    32    33   ar
    29    33    34    1
    30    33    35   ar
    31    35    36   ar
    32    14    15   ar
    33    15    16   ar
    34    16    17    1
    35    16    11   ar
    36     8     1   ar
    37    36    30   ar
    38     9    10    1
@<TRIPOS>MOLECULE
*****
 36 38 0 0 0
SMALL
GASTEIGER

@<TRIPOS>ATOM
      1 C          62.8370   87.9059   12.6784 C.ar    1  UNL1        0.2093
      2 N          63.8296   87.6519   13.7741 N.ar    1  UNL1       -0.1604
      3 C          64.3067   86.2559   14.0451 C.ar    1  UNL1        0.3558
      4 O          65.2992   86.0019   15.1408 O.2     1  UNL1       -0.2442
      5 N          63.7913   85.1138   13.2205 N.ar    1  UNL1       -0.2325
      6 C          62.7989   85.3677   12.1248 C.ar    1  UNL1        0.3372
      7 O          62.2835   84.2256   11.3002 O.2     1  UNL1       -0.2461
      8 N          62.3217   86.7638   11.8538 N.ar    1  UNL1       -0.2498
      9 N          62.3599   89.3019   12.4074 N.pl3   1  UNL1       -0.2836
     10 H          61.3997   89.5127   12.4597 H       1  UNL1        0.1550
     11 C          65.3176   92.5261   11.3555 C.ar    1  UNL1        0.1657
     12 C          64.3860   91.9922   10.3081 C.ar    1  UNL1        0.0405
     13 C          63.4002   90.9174   10.6588 C.ar    1  UNL1        0.0179
     14 C          63.3458   90.3766   12.0568 C.ar    1  UNL1        0.0529
     15 C          64.2773   90.9106   13.1042 C.ar    1  UNL1        0.0474
     16 C          65.2632   91.9854   12.7536 C.ar    1  UNL1        0.1750
     17 F          66.1948   92.5193   13.8011 F       1  UNL1       -0.2009
     18 O          66.3034   93.6009   11.0049 O.3     1  UNL1       -0.4769
     19 C          68.0722   92.0852    9.8543 C.3     1  UNL1        0.0472
     20 C          67.3046   93.3726    9.9115 C.3     1  UNL1        0.1662
     21 C          67.5381   94.4317    8.8752 C.3     1  UNL1        0.0472
     22 C          64.2685   83.7177   13.4915 C.3     1  UNL1        0.1202
     23 C          63.2869   82.5842   13.5317 C.3     1  UNL1        0.0532
     24 C          62.5769   83.2398   14.6790 C.3     1  UNL1        0.0075
     25 C          63.9969   81.9287   12.3845 C.3     1  UNL1        0.0075
     26 C          62.3054   81.4507   13.5720 C.2     1  UNL1        0.0515
     27 O          61.1297   81.5093   14.5018 O.co2   1  UNL1       -0.5491
     28 O          62.4994   80.2586   12.6825 O.co2   1  UNL1       -0.5491
     29 C          61.3292   87.0177   10.7581 C.3     1  UNL1        0.1399
     30 C          61.4778   86.3246    9.4361 C.ar    1  UNL1        0.0007
     31 C          62.8136   85.7857    9.0178 C.ar    1  UNL1       -0.0015
     32 C          62.9622   85.0926    7.6959 C.ar    1  UNL1        0.0111
     33 C          61.7749   84.9386    6.7922 C.ar    1  UNL1        0.0577
     34 CL         61.9235   84.2455    5.4702 Cl      1  UNL1       -0.0822
     35 C          60.4391   85.4775    7.2105 C.ar    1  UNL1        0.0111
     36 C          60.2905   86.1706    8.5325 C.ar    1  UNL1       -0.0015
@<TRIPOS>UNITY_ATOM_ATTR
27 1
charge -1
@<TRIPOS>BOND
     1    19    20    1
     2    20    21    1
     3    20    18    1
     4    18    11    1
     5    11    12   ar
     6    12    13   ar
     7    13    14   ar
     8    14     9    1
     9     9     1    1
    10     1     2   ar
    11     2     3   ar
    12     3     4    2
    13     3     5   ar
    14     5    22    1
    15    22    23    1
    16    23    24    1
    17    23    25    1
    18    23    26    1
    19    26    27   ar
    20    26    28   ar
    21     5     6   ar
    22     6     7    2
    23     6     8   ar
    24     8    29    1
    25    29    30    1
    26    30    31   ar
    27    31    32   ar
    28    32    33   ar
    29    33    34    1
    30    33    35   ar
    31    35    36   ar
    32    14    15   ar
    33    15    16   ar
    34    16    17    1
    35    16    11   ar
    36     8     1   ar
    37    36    30   ar
    38     9    10    1
@<TRIPOS>MOLECULE
*****
 36 38 0 0 0
SMALL
GASTEIGER

@<TRIPOS>ATOM
      1 C          64.5576   91.2790   14.2191 C.ar    1  UNL1        0.2093
      2 N          65.9863   91.6538   14.4813 N.ar    1  UNL1       -0.1604
      3 C          66.8336   92.2019   13.3716 C.ar    1  UNL1        0.3558
      4 O          68.2623   92.5767   13.6337 O.2     1  UNL1       -0.2442
      5 N          66.2525   92.3753   11.9996 N.ar    1  UNL1       -0.2325
      6 C          64.8239   92.0005   11.7374 C.ar    1  UNL1        0.3372
      7 O          64.2427   92.1739   10.3655 O.2     1  UNL1       -0.2461
      8 N          63.9765   91.4524   12.8472 N.ar    1  UNL1       -0.2498
      9 N          63.7103   90.7309   15.3288 N.pl3   1  UNL1       -0.2836
     10 H          63.1663   91.3394   15.8793 H       1  UNL1        0.1550
     11 C          63.6548   86.3054   16.1420 C.ar    1  UNL1        0.1657
     12 C          62.9762   87.2504   17.0887 C.ar    1  UNL1        0.0405
     13 C          62.9947   88.7256   16.8176 C.ar    1  UNL1        0.0179
     14 C          63.6918   89.2558   15.5999 C.ar    1  UNL1        0.0529
     15 C          64.3704   88.3107   14.6532 C.ar    1  UNL1        0.0474
     16 C          64.3519   86.8355   14.9242 C.ar    1  UNL1        0.1750
     17 F          65.0305   85.8904   13.9774 F       1  UNL1       -0.2009
     18 O          63.6363   84.8302   16.4130 O.3     1  UNL1       -0.4769
     19 C          64.2195   82.8731   14.8070 C.3     1  UNL1        0.0472
     20 C          63.2323   83.8737   15.3305 C.3     1  UNL1        0.1662
     21 C          61.8410   83.9179   14.7714 C.3     1  UNL1        0.0472
     22 C          67.0999   92.9234   10.8899 C.3     1  UNL1        0.1202
     23 C          66.8169   94.2874   10.3337 C.3     1  UNL1        0.0532
     24 C          67.3764   93.8631    9.0083 C.3     1  UNL1        0.0075
     25 C          66.2574   94.7118   11.6592 C.3     1  UNL1        0.0075
     26 C          66.5339   95.6515    9.7776 C.2     1  UNL1        0.0515
     27 O          65.3696   96.4447   10.2928 O.co2   1  UNL1       -0.5491
     28 O          67.4151   96.2223    8.7064 O.co2   1  UNL1       -0.5491
     29 C          62.5479   91.0777   12.5850 C.3     1  UNL1        0.1399
     30 C          62.2263   89.9824   11.6119 C.ar    1  UNL1        0.0007
     31 C          62.7720   88.6022   11.8290 C.ar    1  UNL1       -0.0015
     32 C          62.4504   87.5069   10.8559 C.ar    1  UNL1        0.0111
     33 C          61.5832   87.7918    9.6657 C.ar    1  UNL1        0.0577
     34 CL         61.2616   86.6965    8.6926 Cl      1  UNL1       -0.0822
     35 C          61.0375   89.1721    9.4485 C.ar    1  UNL1        0.0111
     36 C          61.3591   90.2673   10.4216 C.ar    1  UNL1       -0.0015
@<TRIPOS>UNITY_ATOM_ATTR
27 1
charge -1
@<TRIPOS>BOND
     1    19    20    1
     2    20    21    1
     3    20    18    1
     4    18    11    1
     5    11    12   ar
     6    12    13   ar
     7    13    14   ar
     8    14     9    1
     9     9     1    1
    10     1     2   ar
    11     2     3   ar
    12     3     4    2
    13     3     5   ar
    14     5    22    1
    15    22    23    1
    16    23    24    1
    17    23    25    1
    18    23    26    1
    19    26    27   ar
    20    26    28   ar
    21     5     6   ar
    22     6     7    2
    23     6     8   ar
    24     8    29    1
    25    29    30    1
    26    30    31   ar
    27    31    32   ar
    28    32    33   ar
    29    33    34    1
    30    33    35   ar
    31    35    36   ar
    32    14    15   ar
    33    15    16   ar
    34    16    17    1
    35    16    11   ar
    36     8     1   ar
    37    36    30   ar
    38     9    10    1
@<TRIPOS>MOLECULE
*****
 36 38 0 0 0
SMALL
GASTEIGER

@<TRIPOS>ATOM
      1 C          62.9552   87.5288   12.7070 C.ar    1  UNL1        0.2093
      2 N          63.9004   87.1342   13.8029 N.ar    1  UNL1       -0.1604
      3 C          64.2923   85.6964   13.9738 C.ar    1  UNL1        0.3558
      4 O          65.2375   85.3017   15.0697 O.2     1  UNL1       -0.2442
      5 N          63.7390   84.6532   13.0487 N.ar    1  UNL1       -0.2325
      6 C          62.7939   85.0478   11.9529 C.ar    1  UNL1        0.3372
      7 O          62.2406   84.0046   11.0278 O.2     1  UNL1       -0.2461
      8 N          62.4019   86.4856   11.7820 N.ar    1  UNL1       -0.2498
      9 N          62.5633   88.9666   12.5362 N.pl3   1  UNL1       -0.2836
     10 H          61.6668   89.1958   12.2002 H       1  UNL1        0.1550
     11 C          65.4855   92.2321   13.5597 C.ar    1  UNL1        0.1657
     12 C          65.0815   91.2330   14.6030 C.ar    1  UNL1        0.0405
     13 C          64.1075   90.1445   14.2619 C.ar    1  UNL1        0.0179
     14 C          63.5374   90.0551   12.8774 C.ar    1  UNL1        0.0529
     15 C          63.9413   91.0541   11.8340 C.ar    1  UNL1        0.0474
     16 C          64.9153   92.1426   12.1752 C.ar    1  UNL1        0.1750
     17 F          65.3192   93.1418   11.1317 F       1  UNL1       -0.2009
     18 O          66.4595   93.3206   13.9008 O.3     1  UNL1       -0.4769
     19 C          68.0909   93.7067   15.8856 C.3     1  UNL1        0.0472
     20 C          67.7344   92.9885   14.6179 C.3     1  UNL1        0.1662
     21 C          68.6530   91.9381   14.0673 C.3     1  UNL1        0.0472
     22 C          64.1310   83.2154   13.2196 C.3     1  UNL1        0.1202
     23 C          63.0776   82.1737   13.4547 C.3     1  UNL1        0.0532
     24 C          63.4960   81.4673   12.1994 C.3     1  UNL1        0.0075
     25 C          62.6591   82.8802   14.7100 C.3     1  UNL1        0.0075
     26 C          62.0241   81.1321   13.6898 C.2     1  UNL1        0.0515
     27 O          60.8582   81.4331   14.5843 O.co2   1  UNL1       -0.5491
     28 O          62.1366   79.7895   13.0304 O.co2   1  UNL1       -0.5491
     29 C          61.4568   86.8802   10.6861 C.3     1  UNL1        0.1399
     30 C          61.5467   86.2176    9.3434 C.ar    1  UNL1        0.0007
     31 C          62.8703   85.7267    8.8364 C.ar    1  UNL1       -0.0015
     32 C          62.9602   85.0641    7.4937 C.ar    1  UNL1        0.0111
     33 C          61.7265   84.8924    6.6580 C.ar    1  UNL1        0.0577
     34 CL         61.8164   84.2298    5.3153 Cl      1  UNL1       -0.0822
     35 C          60.4029   85.3833    7.1650 C.ar    1  UNL1        0.0111
     36 C          60.3130   86.0459    8.5077 C.ar    1  UNL1       -0.0015
@<TRIPOS>UNITY_ATOM_ATTR
27 1
charge -1
@<TRIPOS>BOND
     1    19    20    1
     2    20    21    1
     3    20    18    1
     4    18    11    1
     5    11    12   ar
     6    12    13   ar
     7    13    14   ar
     8    14     9    1
     9     9     1    1
    10     1     2   ar
    11     2     3   ar
    12     3     4    2
    13     3     5   ar
    14     5    22    1
    15    22    23    1
    16    23    24    1
    17    23    25    1
    18    23    26    1
    19    26    27   ar
    20    26    28   ar
    21     5     6   ar
    22     6     7    2
    23     6     8   ar
    24     8    29    1
    25    29    30    1
    26    30    31   ar
    27    31    32   ar
    28    32    33   ar
    29    33    34    1
    30    33    35   ar
    31    35    36   ar
    32    14    15   ar
    33    15    16   ar
    34    16    17    1
    35    16    11   ar
    36     8     1   ar
    37    36    30   ar
    38     9    10    1
@<TRIPOS>MOLECULE
*****
 36 38 0 0 0
SMALL
GASTEIGER

@<TRIPOS>ATOM
      1 C          62.4135   89.7304   12.0970 C.ar    1  UNL1        0.2093
      2 N          61.3199   89.8778   11.0809 N.ar    1  UNL1       -0.1604
      3 C          60.7795   88.6669   10.3796 C.ar    1  UNL1        0.3558
      4 O          59.6859   88.8143    9.3635 O.2     1  UNL1       -0.2442
      5 N          61.3327   87.3087   10.6945 N.ar    1  UNL1       -0.2325
      6 C          62.4262   87.1613   11.7105 C.ar    1  UNL1        0.3372
      7 O          62.9794   85.8030   12.0254 O.2     1  UNL1       -0.2461
      8 N          62.9667   88.3722   12.4118 N.ar    1  UNL1       -0.2498
      9 N          62.9539   90.9413   12.7982 N.pl3   1  UNL1       -0.2836
     10 H          62.5044   91.2851   13.6039 H       1  UNL1        0.1550
     11 C          66.6293   93.0026   11.2195 C.ar    1  UNL1        0.1657
     12 C          65.5013   92.6647   10.2902 C.ar    1  UNL1        0.0405
     13 C          64.2762   91.9776   10.8165 C.ar    1  UNL1        0.0179
     14 C          64.1790   91.6284   12.2720 C.ar    1  UNL1        0.0529
     15 C          65.3069   91.9663   13.2012 C.ar    1  UNL1        0.0474
     16 C          66.5320   92.6535   12.6750 C.ar    1  UNL1        0.1750
     17 F          67.6600   92.9914   13.6043 F       1  UNL1       -0.2009
     18 O          67.8544   93.6897   10.6932 O.3     1  UNL1       -0.4769
     19 C          68.8308   92.4446    8.6326 C.3     1  UNL1        0.0472
     20 C          68.1646   93.6503    9.2262 C.3     1  UNL1        0.1662
     21 C          67.8086   94.8167    8.3527 C.3     1  UNL1        0.0472
     22 C          60.7923   86.0978    9.9932 C.3     1  UNL1        0.1202
     23 C          61.3605   85.6822    8.6687 C.3     1  UNL1        0.0532
     24 C          62.6437   85.2935    9.3411 C.3     1  UNL1        0.0075
     25 C          60.0773   86.0709    7.9962 C.3     1  UNL1        0.0075
     26 C          61.9288   85.2666    7.3441 C.2     1  UNL1        0.0515
     27 O          61.0118   84.9676    6.1952 O.co2   1  UNL1       -0.5491
     28 O          63.4138   85.1501    7.1684 O.co2   1  UNL1       -0.5491
     29 C          64.0602   88.2248   13.4279 C.3     1  UNL1        0.1399
     30 C          63.7243   87.8616   14.8440 C.ar    1  UNL1        0.0007
     31 C          63.7709   86.4277   15.2817 C.ar    1  UNL1       -0.0015
     32 C          63.4350   86.0645   16.6978 C.ar    1  UNL1        0.0111
     33 C          63.0524   87.1353   17.6761 C.ar    1  UNL1        0.0577
     34 CL         62.7165   86.7721   19.0922 Cl      1  UNL1       -0.0822
     35 C          63.0058   88.5692   17.2383 C.ar    1  UNL1        0.0111
     36 C          63.3417   88.9323   15.8222 C.ar    1  UNL1       -0.0015
@<TRIPOS>UNITY_ATOM_ATTR
27 1
charge -1
@<TRIPOS>BOND
     1    19    20    1
     2    20    21    1
     3    20    18    1
     4    18    11    1
     5    11    12   ar
     6    12    13   ar
     7    13    14   ar
     8    14     9    1
     9     9     1    1
    10     1     2   ar
    11     2     3   ar
    12     3     4    2
    13     3     5   ar
    14     5    22    1
    15    22    23    1
    16    23    24    1
    17    23    25    1
    18    23    26    1
    19    26    27   ar
    20    26    28   ar
    21     5     6   ar
    22     6     7    2
    23     6     8   ar
    24     8    29    1
    25    29    30    1
    26    30    31   ar
    27    31    32   ar
    28    32    33   ar
    29    33    34    1
    30    33    35   ar
    31    35    36   ar
    32    14    15   ar
    33    15    16   ar
    34    16    17    1
    35    16    11   ar
    36     8     1   ar
    37    36    30   ar
    38     9    10    1
@<TRIPOS>MOLECULE
*****
 36 38 0 0 0
SMALL
GASTEIGER

@<TRIPOS>ATOM
      1 C          64.1936   90.6321   13.6306 C.ar    1  UNL1        0.2093
      2 N          65.5486   90.7461   14.2638 N.ar    1  UNL1       -0.1604
      3 C          66.5801   91.6585   13.6691 C.ar    1  UNL1        0.3558
      4 O          67.9351   91.7725   14.3024 O.2     1  UNL1       -0.2442
      5 N          66.2565   92.4569   12.4412 N.ar    1  UNL1       -0.2325
      6 C          64.9016   92.3429   11.8079 C.ar    1  UNL1        0.3372
      7 O          64.5781   93.1413   10.5799 O.2     1  UNL1       -0.2461
      8 N          63.8701   91.4305   12.4026 N.ar    1  UNL1       -0.2498
      9 N          63.1622   89.7198   14.2253 N.pl3   1  UNL1       -0.2836
     10 H          62.2922   90.0807   14.5118 H       1  UNL1        0.1550
     11 C          64.0443   85.3327   14.6998 C.ar    1  UNL1        0.1657
     12 C          63.8829   85.9213   13.3296 C.ar    1  UNL1        0.0405
     13 C          63.5889   87.3837   13.1715 C.ar    1  UNL1        0.0179
     14 C          63.4562   88.2574   14.3834 C.ar    1  UNL1        0.0529
     15 C          63.6176   87.6687   15.7536 C.ar    1  UNL1        0.0474
     16 C          63.9116   86.2064   15.9118 C.ar    1  UNL1        0.1750
     17 F          64.0729   85.6177   17.2821 F       1  UNL1       -0.2009
     18 O          64.3383   83.8703   14.8580 O.3     1  UNL1       -0.4769
     19 C          64.2312   82.3028   12.7888 C.3     1  UNL1        0.0472
     20 C          63.5990   82.8626   14.0286 C.3     1  UNL1        0.1662
     21 C          62.2274   82.4147   14.4388 C.3     1  UNL1        0.0472
     22 C          67.2881   93.3693   11.8465 C.3     1  UNL1        0.1202
     23 C          67.5718   93.3220   10.3743 C.3     1  UNL1        0.0532
     24 C          68.0369   91.9023   10.5096 C.3     1  UNL1        0.0075
     25 C          67.1068   94.7416   10.2391 C.3     1  UNL1        0.0075
     26 C          67.8555   93.2746    8.9022 C.2     1  UNL1        0.0515
     27 O          67.3737   94.3798    8.0096 O.co2   1  UNL1       -0.5491
     28 O          68.6211   92.1223    8.3226 O.co2   1  UNL1       -0.5491
     29 C          62.5151   91.3165   11.7693 C.3     1  UNL1        0.1399
     30 C          62.0591   90.0037   11.2049 C.ar    1  UNL1        0.0007
     31 C          60.7545   89.4099   11.6470 C.ar    1  UNL1       -0.0015
     32 C          60.2984   88.0971   11.0826 C.ar    1  UNL1        0.0111
     33 C          61.1469   87.3781   10.0761 C.ar    1  UNL1        0.0577
     34 CL         60.6908   86.0653    9.5117 Cl      1  UNL1       -0.0822
     35 C          62.4514   87.9719    9.6340 C.ar    1  UNL1        0.0111
     36 C          62.9075   89.2847   10.1984 C.ar    1  UNL1       -0.0015
@<TRIPOS>UNITY_ATOM_ATTR
27 1
charge -1
@<TRIPOS>BOND
     1    19    20    1
     2    20    21    1
     3    20    18    1
     4    18    11    1
     5    11    12   ar
     6    12    13   ar
     7    13    14   ar
     8    14     9    1
     9     9     1    1
    10     1     2   ar
    11     2     3   ar
    12     3     4    2
    13     3     5   ar
    14     5    22    1
    15    22    23    1
    16    23    24    1
    17    23    25    1
    18    23    26    1
    19    26    27   ar
    20    26    28   ar
    21     5     6   ar
    22     6     7    2
    23     6     8   ar
    24     8    29    1
    25    29    30    1
    26    30    31   ar
    27    31    32   ar
    28    32    33   ar
    29    33    34    1
    30    33    35   ar
    31    35    36   ar
    32    14    15   ar
    33    15    16   ar
    34    16    17    1
    35    16    11   ar
    36     8     1   ar
    37    36    30   ar
    38     9    10    1
@<TRIPOS>MOLECULE
*****
 36 38 0 0 0
SMALL
GASTEIGER

@<TRIPOS>ATOM
      1 C          63.1995   87.4727   12.9643 C.ar    1  UNL1        0.2093
      2 N          64.0189   86.9411   14.1028 N.ar    1  UNL1       -0.1604
      3 C          64.3842   85.4870   14.1491 C.ar    1  UNL1        0.3558
      4 O          65.2036   84.9554   15.2875 O.2     1  UNL1       -0.2442
      5 N          63.9302   84.5645   13.0569 N.ar    1  UNL1       -0.2325
      6 C          63.1109   85.0961   11.9184 C.ar    1  UNL1        0.3372
      7 O          62.6569   84.1736   10.8262 O.2     1  UNL1       -0.2461
      8 N          62.7455   86.5502   11.8721 N.ar    1  UNL1       -0.2498
      9 N          62.8342   88.9268   12.9181 N.pl3   1  UNL1       -0.2836
     10 H          61.9138   89.1963   12.6953 H       1  UNL1        0.1550
     11 C          65.9448   92.0574   13.7975 C.ar    1  UNL1        0.1657
     12 C          65.7278   90.9253   14.7573 C.ar    1  UNL1        0.0405
     13 C          64.6910   89.8818   14.4641 C.ar    1  UNL1        0.0179
     14 C          63.8710   89.9703   13.2112 C.ar    1  UNL1        0.0529
     15 C          64.0880   91.1025   12.2515 C.ar    1  UNL1        0.0474
     16 C          65.1248   92.1460   12.5446 C.ar    1  UNL1        0.1750
     17 F          65.3418   93.2782   11.5848 F       1  UNL1       -0.2009
     18 O          66.9816   93.1009   14.0907 O.3     1  UNL1       -0.4769
     19 C          68.6959   93.0161   16.0411 C.3     1  UNL1        0.0472
     20 C          68.3238   92.6956   14.6237 C.3     1  UNL1        0.1662
     21 C          69.2941   91.9699   13.7394 C.3     1  UNL1        0.0472
     22 C          64.2956   83.1104   13.1031 C.3     1  UNL1        0.1202
     23 C          63.2286   82.0750   13.3019 C.3     1  UNL1        0.0532
     24 C          63.5887   81.4514   11.9860 C.3     1  UNL1        0.0075
     25 C          62.8686   82.6985   14.6177 C.3     1  UNL1        0.0075
     26 C          62.1617   81.0396   13.5006 C.2     1  UNL1        0.0515
     27 O          60.9527   81.3579   14.3296 O.co2   1  UNL1       -0.5491
     28 O          62.3036   79.6858   12.8703 O.co2   1  UNL1       -0.5491
     29 C          61.9262   87.0818   10.7337 C.3     1  UNL1        0.1399
     30 C          61.0347   88.2701   10.9419 C.ar    1  UNL1        0.0007
     31 C          59.8530   88.1694   11.8601 C.ar    1  UNL1       -0.0015
     32 C          58.9615   89.3577   12.0683 C.ar    1  UNL1        0.0111
     33 C          59.2519   90.6467   11.3583 C.ar    1  UNL1        0.0577
     34 CL         58.3605   91.8349   11.5665 Cl      1  UNL1       -0.0822
     35 C          60.4337   90.7473   10.4400 C.ar    1  UNL1        0.0111
     36 C          61.3251   89.5591   10.2318 C.ar    1  UNL1       -0.0015
@<TRIPOS>UNITY_ATOM_ATTR
27 1
charge -1
@<TRIPOS>BOND
     1    19    20    1
     2    20    21    1
     3    20    18    1
     4    18    11    1
     5    11    12   ar
     6    12    13   ar
     7    13    14   ar
     8    14     9    1
     9     9     1    1
    10     1     2   ar
    11     2     3   ar
    12     3     4    2
    13     3     5   ar
    14     5    22    1
    15    22    23    1
    16    23    24    1
    17    23    25    1
    18    23    26    1
    19    26    27   ar
    20    26    28   ar
    21     5     6   ar
    22     6     7    2
    23     6     8   ar
    24     8    29    1
    25    29    30    1
    26    30    31   ar
    27    31    32   ar
    28    32    33   ar
    29    33    34    1
    30    33    35   ar
    31    35    36   ar
    32    14    15   ar
    33    15    16   ar
    34    16    17    1
    35    16    11   ar
    36     8     1   ar
    37    36    30   ar
    38     9    10    1
@<TRIPOS>MOLECULE
*****
 36 38 0 0 0
SMALL
GASTEIGER

@<TRIPOS>ATOM
      1 C          63.8897   89.1507   14.9430 C.ar    1  UNL1        0.2093
      2 N          64.5264   90.3155   15.6416 N.ar    1  UNL1       -0.1604
      3 C          64.9676   91.5129   14.8534 C.ar    1  UNL1        0.3558
      4 O          65.6043   92.6777   15.5520 O.2     1  UNL1       -0.2442
      5 N          64.7721   91.5457   13.3665 N.ar    1  UNL1       -0.2325
      6 C          64.1354   90.3811   12.6680 C.ar    1  UNL1        0.3372
      7 O          63.9398   90.4139   11.1811 O.2     1  UNL1       -0.2461
      8 N          63.6941   89.1835   13.4562 N.ar    1  UNL1       -0.2498
      9 N          63.4485   87.9532   15.7313 N.pl3   1  UNL1       -0.2836
     10 H          62.9749   88.0737   16.5859 H       1  UNL1        0.1550
     11 C          64.2898   83.8101   14.1896 C.ar    1  UNL1        0.1657
     12 C          65.3859   84.8333   14.2272 C.ar    1  UNL1        0.0405
     13 C          65.1055   86.2143   14.7411 C.ar    1  UNL1        0.0179
     14 C          63.7289   86.5722   15.2174 C.ar    1  UNL1        0.0529
     15 C          62.6328   85.5490   15.1799 C.ar    1  UNL1        0.0474
     16 C          62.9132   84.1679   14.6660 C.ar    1  UNL1        0.1750
     17 F          61.8169   83.1447   14.6285 F       1  UNL1       -0.2009
     18 O          64.5702   82.4290   13.6758 O.3     1  UNL1       -0.4769
     19 C          64.2641   82.5801   11.1002 C.3     1  UNL1        0.0472
     20 C          63.9130   81.9500   12.4154 C.3     1  UNL1        0.1662
     21 C          62.9047   80.8407   12.4701 C.3     1  UNL1        0.0472
     22 C          65.2133   92.7433   12.5783 C.3     1  UNL1        0.1202
     23 C          66.3779   92.6355   11.6392 C.3     1  UNL1        0.0532
     24 C          67.2447   92.1625   12.7683 C.3     1  UNL1        0.0075
     25 C          65.5111   93.1084   10.5100 C.3     1  UNL1        0.0075
     26 C          67.5425   92.5276   10.7000 C.2     1  UNL1        0.0515
     27 O          67.4696   93.1555    9.3396 O.co2   1  UNL1       -0.5491
     28 O          68.7800   91.7920   11.1212 O.co2   1  UNL1       -0.5491
     29 C          63.0574   88.0188   12.7576 C.3     1  UNL1        0.1399
     30 C          62.1764   88.2494   11.5657 C.ar    1  UNL1        0.0007
     31 C          62.3391   87.4035   10.3378 C.ar    1  UNL1       -0.0015
     32 C          61.4581   87.6341    9.1460 C.ar    1  UNL1        0.0111
     33 C          60.4143   88.7107    9.1820 C.ar    1  UNL1        0.0577
     34 CL         59.5332   88.9413    7.9901 Cl      1  UNL1       -0.0822
     35 C          60.2515   89.5567   10.4099 C.ar    1  UNL1        0.0111
     36 C          61.1325   89.3260   11.6018 C.ar    1  UNL1       -0.0015
@<TRIPOS>UNITY_ATOM_ATTR
27 1
charge -1
@<TRIPOS>BOND
     1    19    20    1
     2    20    21    1
     3    20    18    1
     4    18    11    1
     5    11    12   ar
     6    12    13   ar
     7    13    14   ar
     8    14     9    1
     9     9     1    1
    10     1     2   ar
    11     2     3   ar
    12     3     4    2
    13     3     5   ar
    14     5    22    1
    15    22    23    1
    16    23    24    1
    17    23    25    1
    18    23    26    1
    19    26    27   ar
    20    26    28   ar
    21     5     6   ar
    22     6     7    2
    23     6     8   ar
    24     8    29    1
    25    29    30    1
    26    30    31   ar
    27    31    32   ar
    28    32    33   ar
    29    33    34    1
    30    33    35   ar
    31    35    36   ar
    32    14    15   ar
    33    15    16   ar
    34    16    17    1
    35    16    11   ar
    36     8     1   ar
    37    36    30   ar
    38     9    10    1
