@<TRIPOS>MOLECULE
*****
 28 31 0 0 0
SMALL
GASTEIGER

@<TRIPOS>ATOM
      1 C          62.8158   87.5496   17.8860 C.3     1  UNL1        0.0298
      2 C          63.2133   87.8032   16.4620 C.3     1  UNL1        0.1343
      3 C          63.4817   89.2036   15.9962 C.ar    1  UNL1        0.1615
      4 N          63.4354   90.5238   16.7067 N.ar    1  UNL1       -0.1316
      5 N          63.8042   91.5933   15.7218 N.ar    1  UNL1       -0.1268
      6 C          64.0786   90.9341   14.4026 C.ar    1  UNL1        0.1917
      7 N          63.8792   89.4571   14.5722 N.ar    1  UNL1       -0.2940
      8 C          64.0083   88.3103   13.6140 C.3     1  UNL1        0.1302
      9 C          63.7399   86.9100   14.0798 C.3     1  UNL1        0.1186
     10 N          63.3424   86.6564   15.5037 N.am    1  UNL1       -0.2688
     11 C          63.0740   85.2560   15.9695 C.2     1  UNL1        0.2494
     12 O          62.6765   85.0024   17.3934 O.2     1  UNL1       -0.2699
     13 C          63.2031   84.1092   15.0113 C.ar    1  UNL1        0.0537
     14 C          64.4367   83.9706   14.1693 C.ar    1  UNL1        0.0068
     15 C          64.5657   82.8237   13.2110 C.ar    1  UNL1        0.0298
     16 C          63.4613   81.8156   13.0948 C.ar    1  UNL1        0.1401
     17 F          63.5902   80.6687   12.1367 F       1  UNL1       -0.2042
     18 C          62.2276   81.9542   13.9369 C.ar    1  UNL1        0.0298
     19 C          62.0985   83.1010   14.8951 C.ar    1  UNL1        0.0068
     20 C          64.4814   91.6297   13.1362 C.ar    1  UNL1        0.1655
     21 N          65.4689   92.7532   13.0231 N.ar    1  UNL1       -0.2116
     22 C          65.5653   93.1418   11.5775 C.ar    1  UNL1        0.2429
     23 N          64.6374   92.2586   10.7972 N.ar    1  UNL1       -0.1848
     24 S          63.9676   91.3241   11.7605 S.2     1  UNL1        0.0372
     25 C          66.4367   94.2237   11.0117 C.3     1  UNL1        0.4529
     26 F          67.3080   95.3056   10.4458 F       1  UNL1       -0.1631
     27 F          66.6642   93.3968    9.7810 F       1  UNL1       -0.1631
     28 F          66.2091   95.0506   12.2423 F       1  UNL1       -0.1631
@<TRIPOS>BOND
     1     2     1    1
     2     2     3    1
     3     3     4   ar
     4     4     5   ar
     5     5     6   ar
     6     6    20    1
     7    20    21   ar
     8    21    22   ar
     9    22    25    1
    10    25    26    1
    11    25    27    1
    12    25    28    1
    13    22    23   ar
    14    23    24   ar
    15     6     7   ar
    16     7     8    1
    17     8     9    1
    18     9    10    1
    19    10    11   am
    20    11    12    2
    21    11    13    1
    22    13    14   ar
    23    14    15   ar
    24    15    16   ar
    25    16    17    1
    26    16    18   ar
    27    18    19   ar
    28    10     2    1
    29    19    13   ar
    30     7     3   ar
    31    24    20   ar
@<TRIPOS>MOLECULE
*****
 28 31 0 0 0
SMALL
GASTEIGER

@<TRIPOS>ATOM
      1 C          61.4271   87.7898    9.6372 C.3     1  UNL1        0.0298
      2 C          62.2438   87.9163   10.8891 C.3     1  UNL1        0.1343
      3 C          62.6575   89.2716   11.3810 C.ar    1  UNL1        0.1615
      4 N          62.4110   90.6515   10.8469 N.ar    1  UNL1       -0.1316
      5 N          63.0753   91.6307   11.7687 N.ar    1  UNL1       -0.1268
      6 C          63.7324   90.8561   12.8724 C.ar    1  UNL1        0.1917
      7 N          63.4741   89.3981   12.6328 N.ar    1  UNL1       -0.2940
      8 C          63.8770   88.1692   13.3928 C.3     1  UNL1        0.1302
      9 C          63.4633   86.8139   12.9009 C.3     1  UNL1        0.1186
     10 N          62.6467   86.6874   11.6491 N.am    1  UNL1       -0.2688
     11 C          62.2330   85.3320   11.1572 C.2     1  UNL1        0.2494
     12 O          61.4164   85.2056    9.9054 O.2     1  UNL1       -0.2699
     13 C          62.6359   84.1032   11.9172 C.ar    1  UNL1        0.0537
     14 C          62.3355   83.9956   13.3828 C.ar    1  UNL1        0.0068
     15 C          62.7385   82.7667   14.1428 C.ar    1  UNL1        0.0298
     16 C          63.4418   81.6455   13.4371 C.ar    1  UNL1        0.1401
     17 F          63.8448   80.4166   14.1970 F       1  UNL1       -0.2042
     18 C          63.7422   81.7531   11.9714 C.ar    1  UNL1        0.0298
     19 C          63.3393   82.9819   11.2114 C.ar    1  UNL1        0.0068
     20 C          64.5110   91.4375   14.0152 C.ar    1  UNL1        0.1655
     21 N          65.7967   92.2024   13.9073 N.ar    1  UNL1       -0.2116
     22 C          66.2208   92.5937   15.2919 C.ar    1  UNL1        0.2429
     23 N          65.1972   92.0705   16.2555 N.ar    1  UNL1       -0.1848
     24 S          64.1405   91.3559   15.4664 S.2     1  UNL1        0.0372
     25 C          67.4524   93.3715   15.6500 C.3     1  UNL1        0.4529
     26 F          68.6840   94.1494   16.0081 F       1  UNL1       -0.1631
     27 F          67.7937   92.3504   16.6944 F       1  UNL1       -0.1631
     28 F          67.1111   94.3926   14.6056 F       1  UNL1       -0.1631
@<TRIPOS>BOND
     1     2     1    1
     2     2     3    1
     3     3     4   ar
     4     4     5   ar
     5     5     6   ar
     6     6    20    1
     7    20    21   ar
     8    21    22   ar
     9    22    25    1
    10    25    26    1
    11    25    27    1
    12    25    28    1
    13    22    23   ar
    14    23    24   ar
    15     6     7   ar
    16     7     8    1
    17     8     9    1
    18     9    10    1
    19    10    11   am
    20    11    12    2
    21    11    13    1
    22    13    14   ar
    23    14    15   ar
    24    15    16   ar
    25    16    17    1
    26    16    18   ar
    27    18    19   ar
    28    10     2    1
    29    19    13   ar
    30     7     3   ar
    31    24    20   ar
@<TRIPOS>MOLECULE
*****
 28 31 0 0 0
SMALL
GASTEIGER

@<TRIPOS>ATOM
      1 C          63.1231   89.9682   17.2919 C.3     1  UNL1        0.0298
      2 C          63.4427   89.0119   16.1813 C.3     1  UNL1        0.1343
      3 C          63.1605   87.5481   16.3475 C.ar    1  UNL1        0.1615
      4 N          62.5764   86.7612   17.4831 N.ar    1  UNL1       -0.1316
      5 N          62.5350   85.3186   17.0743 N.ar    1  UNL1       -0.1268
      6 C          63.0936   85.2139   15.6861 C.ar    1  UNL1        0.1917
      7 N          63.4802   86.5919   15.2369 N.ar    1  UNL1       -0.2940
      8 C          64.0819   87.0994   13.9601 C.3     1  UNL1        0.1302
      9 C          64.3641   88.5632   13.7939 C.3     1  UNL1        0.1186
     10 N          64.0445   89.5194   14.9045 N.am    1  UNL1       -0.2688
     11 C          64.3266   90.9833   14.7382 C.2     1  UNL1        0.2494
     12 O          64.0070   91.9396   15.8488 O.2     1  UNL1       -0.2699
     13 C          64.9284   91.4909   13.4614 C.ar    1  UNL1        0.0537
     14 C          64.1058   91.5287   12.2077 C.ar    1  UNL1        0.0068
     15 C          64.7077   92.0363   10.9309 C.ar    1  UNL1        0.0298
     16 C          66.1320   92.5060   10.9078 C.ar    1  UNL1        0.1401
     17 F          66.7339   93.0136    9.6311 F       1  UNL1       -0.2042
     18 C          66.9546   92.4682   12.1617 C.ar    1  UNL1        0.0298
     19 C          66.3528   91.9606   13.4385 C.ar    1  UNL1        0.0068
     20 C          63.2398   83.9527   14.8874 C.ar    1  UNL1        0.1655
     21 N          62.2324   82.8451   14.7959 N.ar    1  UNL1       -0.2116
     22 C          62.7892   81.7856   13.8918 C.ar    1  UNL1        0.2429
     23 N          64.1408   82.2383   13.4245 N.ar    1  UNL1       -0.1848
     24 S          64.4193   83.5776   14.0398 S.2     1  UNL1        0.0372
     25 C          62.1131   80.4992   13.5203 C.3     1  UNL1        0.4529
     26 F          61.4370   79.2128   13.1487 F       1  UNL1       -0.1631
     27 F          61.0670   80.7468   14.5664 F       1  UNL1       -0.1631
     28 F          63.1592   80.2515   12.4741 F       1  UNL1       -0.1631
@<TRIPOS>BOND
     1     2     1    1
     2     2     3    1
     3     3     4   ar
     4     4     5   ar
     5     5     6   ar
     6     6    20    1
     7    20    21   ar
     8    21    22   ar
     9    22    25    1
    10    25    26    1
    11    25    27    1
    12    25    28    1
    13    22    23   ar
    14    23    24   ar
    15     6     7   ar
    16     7     8    1
    17     8     9    1
    18     9    10    1
    19    10    11   am
    20    11    12    2
    21    11    13    1
    22    13    14   ar
    23    14    15   ar
    24    15    16   ar
    25    16    17    1
    26    16    18   ar
    27    18    19   ar
    28    10     2    1
    29    19    13   ar
    30     7     3   ar
    31    24    20   ar
@<TRIPOS>MOLECULE
*****
 28 31 0 0 0
SMALL
GASTEIGER

@<TRIPOS>ATOM
      1 C          64.5187   90.0661   13.9612 C.3     1  UNL1        0.0298
      2 C          63.9584   90.3537   12.5998 C.3     1  UNL1        0.1343
      3 C          62.8448   89.5103   12.0535 C.ar    1  UNL1        0.1615
      4 N          62.1026   88.3372   12.6219 N.ar    1  UNL1       -0.1316
      5 N          61.0836   87.8999   11.6117 N.ar    1  UNL1       -0.1268
      6 C          61.1960   88.8027   10.4191 C.ar    1  UNL1        0.1917
      7 N          62.2845   89.7980   10.6921 N.ar    1  UNL1       -0.2940
      8 C          62.8379   90.9290    9.8770 C.3     1  UNL1        0.1302
      9 C          63.9515   91.7725   10.4233 C.3     1  UNL1        0.1186
     10 N          64.5118   91.4848   11.7846 N.am    1  UNL1       -0.2688
     11 C          65.6255   92.3283   12.3309 C.2     1  UNL1        0.2494
     12 O          66.1858   92.0406   13.6922 O.2     1  UNL1       -0.2699
     13 C          66.1789   93.4594   11.5157 C.ar    1  UNL1        0.0537
     14 C          65.9722   94.8765   11.9618 C.ar    1  UNL1        0.0068
     15 C          66.5256   96.0076   11.1466 C.ar    1  UNL1        0.0298
     16 C          67.2856   95.7215    9.8855 C.ar    1  UNL1        0.1401
     17 F          67.8391   96.8525    9.0703 F       1  UNL1       -0.2042
     18 C          67.4923   94.3043    9.4395 C.ar    1  UNL1        0.0298
     19 C          66.9389   93.1732   10.2546 C.ar    1  UNL1        0.0068
     20 C          60.3657   88.7239    9.1723 C.ar    1  UNL1        0.1655
     21 N          60.2134   89.8059    8.1446 N.ar    1  UNL1       -0.2116
     22 C          59.2955   89.3000    7.0715 C.ar    1  UNL1        0.2429
     23 N          58.8805   87.9054    7.4360 N.ar    1  UNL1       -0.1848
     24 S          59.5419   87.5494    8.7343 S.2     1  UNL1        0.0372
     25 C          58.8677   90.0560    5.8487 C.3     1  UNL1        0.4529
     26 F          58.4399   90.8121    4.6258 F       1  UNL1       -0.1631
     27 F          60.3044   90.2330    5.4555 F       1  UNL1       -0.1631
     28 F          57.4310   89.8791    6.2418 F       1  UNL1       -0.1631
@<TRIPOS>BOND
     1     2     1    1
     2     2     3    1
     3     3     4   ar
     4     4     5   ar
     5     5     6   ar
     6     6    20    1
     7    20    21   ar
     8    21    22   ar
     9    22    25    1
    10    25    26    1
    11    25    27    1
    12    25    28    1
    13    22    23   ar
    14    23    24   ar
    15     6     7   ar
    16     7     8    1
    17     8     9    1
    18     9    10    1
    19    10    11   am
    20    11    12    2
    21    11    13    1
    22    13    14   ar
    23    14    15   ar
    24    15    16   ar
    25    16    17    1
    26    16    18   ar
    27    18    19   ar
    28    10     2    1
    29    19    13   ar
    30     7     3   ar
    31    24    20   ar
@<TRIPOS>MOLECULE
*****
 28 31 0 0 0
SMALL
GASTEIGER

@<TRIPOS>ATOM
      1 C          62.5675   90.5557   10.9022 C.3     1  UNL1        0.0298
      2 C          63.0917   89.5492   11.8832 C.3     1  UNL1        0.1343
      3 C          62.5682   88.1436   11.8679 C.ar    1  UNL1        0.1615
      4 N          61.5433   87.4637   11.0092 N.ar    1  UNL1       -0.1316
      5 N          61.4343   86.0370   11.4595 N.ar    1  UNL1       -0.1268
      6 C          62.3917   85.8353   12.5965 C.ar    1  UNL1        0.1917
      7 N          63.0925   87.1373   12.8488 N.ar    1  UNL1       -0.2940
      8 C          64.1404   87.5365   13.8451 C.3     1  UNL1        0.1302
      9 C          64.6639   88.9421   13.8605 C.3     1  UNL1        0.1186
     10 N          64.1396   89.9484   12.8796 N.am    1  UNL1       -0.2688
     11 C          64.6632   91.3540   12.8949 C.2     1  UNL1        0.2494
     12 O          64.1389   92.3604   11.9139 O.2     1  UNL1       -0.2699
     13 C          65.7110   91.7533   13.8912 C.ar    1  UNL1        0.0537
     14 C          65.3184   92.0847   15.3005 C.ar    1  UNL1        0.0068
     15 C          66.3664   92.4839   16.2968 C.ar    1  UNL1        0.0298
     16 C          67.8067   92.5517   15.8838 C.ar    1  UNL1        0.1401
     17 F          68.8547   92.9509   16.8800 F       1  UNL1       -0.2042
     18 C          68.1994   92.2202   14.4745 C.ar    1  UNL1        0.0298
     19 C          67.1515   91.8210   13.4782 C.ar    1  UNL1        0.0068
     20 C          62.6100   84.5562   13.3489 C.ar    1  UNL1        0.1655
     21 N          62.3962   83.1711   12.8141 N.ar    1  UNL1       -0.2116
     22 C          62.7345   82.1965   13.9030 C.ar    1  UNL1        0.2429
     23 N          63.1573   82.9791   15.1108 N.ar    1  UNL1       -0.1848
     24 S          63.0803   84.4375   14.7683 S.2     1  UNL1        0.0372
     25 C          62.6625   80.7016   13.8018 C.3     1  UNL1        0.4529
     26 F          62.5906   79.2068   13.7006 F       1  UNL1       -0.1631
     27 F          64.1600   80.6266   13.8460 F       1  UNL1       -0.1631
     28 F          61.1650   80.7767   13.7576 F       1  UNL1       -0.1631
@<TRIPOS>BOND
     1     2     1    1
     2     2     3    1
     3     3     4   ar
     4     4     5   ar
     5     5     6   ar
     6     6    20    1
     7    20    21   ar
     8    21    22   ar
     9    22    25    1
    10    25    26    1
    11    25    27    1
    12    25    28    1
    13    22    23   ar
    14    23    24   ar
    15     6     7   ar
    16     7     8    1
    17     8     9    1
    18     9    10    1
    19    10    11   am
    20    11    12    2
    21    11    13    1
    22    13    14   ar
    23    14    15   ar
    24    15    16   ar
    25    16    17    1
    26    16    18   ar
    27    18    19   ar
    28    10     2    1
    29    19    13   ar
    30     7     3   ar
    31    24    20   ar
@<TRIPOS>MOLECULE
*****
 28 31 0 0 0
SMALL
GASTEIGER

@<TRIPOS>ATOM
      1 C          62.8630   87.2837   17.5867 C.3     1  UNL1        0.0298
      2 C          63.2010   86.8615   16.1875 C.3     1  UNL1        0.1343
      3 C          63.0465   85.4265   15.7791 C.ar    1  UNL1        0.1615
      4 N          62.5868   84.2128   16.5311 N.ar    1  UNL1       -0.1316
      5 N          62.6407   83.0406   15.5968 N.ar    1  UNL1       -0.1268
      6 C          63.1338   83.5298   14.2673 C.ar    1  UNL1        0.1917
      7 N          63.3846   85.0044   14.3799 N.ar    1  UNL1       -0.2940
      8 C          63.8772   86.0173   13.3893 C.3     1  UNL1        0.1302
      9 C          64.0317   87.4523   13.7978 C.3     1  UNL1        0.1186
     10 N          63.6936   87.8744   15.1968 N.am    1  UNL1       -0.2688
     11 C          63.8481   89.3095   15.6053 C.2     1  UNL1        0.2494
     12 O          63.5101   89.7316   17.0044 O.2     1  UNL1       -0.2699
     13 C          64.3407   90.3224   14.6146 C.ar    1  UNL1        0.0537
     14 C          65.6204   91.0617   14.8712 C.ar    1  UNL1        0.0068
     15 C          66.1129   92.0746   13.8805 C.ar    1  UNL1        0.0298
     16 C          65.3259   92.3482   12.6333 C.ar    1  UNL1        0.1401
     17 F          65.8183   93.3611   11.6426 F       1  UNL1       -0.2042
     18 C          64.0461   91.6088   12.3767 C.ar    1  UNL1        0.0298
     19 C          63.5535   90.5959   13.3674 C.ar    1  UNL1        0.0068
     20 C          63.3398   82.6916   13.0405 C.ar    1  UNL1        0.1655
     21 N          62.7140   81.3554   12.7703 N.ar    1  UNL1       -0.2116
     22 C          63.1954   80.8804   11.4314 C.ar    1  UNL1        0.2429
     23 N          64.1187   81.9230   10.8741 N.ar    1  UNL1       -0.1848
     24 S          64.2079   83.0423   11.8686 S.2     1  UNL1        0.0372
     25 C          62.8194   79.5895   10.7665 C.3     1  UNL1        0.4529
     26 F          62.4434   78.2985   10.1016 F       1  UNL1       -0.1631
     27 F          62.5305   78.9829   12.1076 F       1  UNL1       -0.1631
     28 F          63.1082   80.1961    9.4254 F       1  UNL1       -0.1631
@<TRIPOS>BOND
     1     2     1    1
     2     2     3    1
     3     3     4   ar
     4     4     5   ar
     5     5     6   ar
     6     6    20    1
     7    20    21   ar
     8    21    22   ar
     9    22    25    1
    10    25    26    1
    11    25    27    1
    12    25    28    1
    13    22    23   ar
    14    23    24   ar
    15     6     7   ar
    16     7     8    1
    17     8     9    1
    18     9    10    1
    19    10    11   am
    20    11    12    2
    21    11    13    1
    22    13    14   ar
    23    14    15   ar
    24    15    16   ar
    25    16    17    1
    26    16    18   ar
    27    18    19   ar
    28    10     2    1
    29    19    13   ar
    30     7     3   ar
    31    24    20   ar
@<TRIPOS>MOLECULE
*****
 28 31 0 0 0
SMALL
GASTEIGER

@<TRIPOS>ATOM
      1 C          62.7701   84.7285   12.0100 C.3     1  UNL1        0.0298
      2 C          62.8368   86.2230   12.1202 C.3     1  UNL1        0.1343
      3 C          63.6130   86.8590   13.2352 C.ar    1  UNL1        0.1615
      4 N          64.4081   86.2750   14.3651 N.ar    1  UNL1       -0.1316
      5 N          64.9661   87.4086   15.1735 N.ar    1  UNL1       -0.1268
      6 C          64.5159   88.6931   14.5433 C.ar    1  UNL1        0.1917
      7 N          63.6796   88.3535   13.3453 N.ar    1  UNL1       -0.2940
      8 C          62.9701   89.2120   12.3405 C.3     1  UNL1        0.1302
      9 C          62.1940   88.5760   11.2256 C.3     1  UNL1        0.1186
     10 N          62.1274   87.0816   11.1154 N.am    1  UNL1       -0.2688
     11 C          61.3512   86.4456   10.0004 C.2     1  UNL1        0.2494
     12 O          61.2845   84.9511    9.8903 O.2     1  UNL1       -0.2699
     13 C          60.6417   87.3040    8.9956 C.ar    1  UNL1        0.0537
     14 C          59.8463   86.6681    7.8943 C.ar    1  UNL1        0.0068
     15 C          59.1368   87.5267    6.8895 C.ar    1  UNL1        0.0298
     16 C          59.2228   89.0210    6.9860 C.ar    1  UNL1        0.1401
     17 F          58.5133   89.8796    5.9812 F       1  UNL1       -0.2042
     18 C          60.0182   89.6570    8.0873 C.ar    1  UNL1        0.0298
     19 C          60.7277   88.7985    9.0921 C.ar    1  UNL1        0.0068
     20 C          64.8444   90.0747   15.0263 C.ar    1  UNL1        0.1655
     21 N          66.1524   90.7855   14.8420 N.ar    1  UNL1       -0.2116
     22 C          66.0388   92.1382   15.4802 C.ar    1  UNL1        0.2429
     23 N          64.6607   92.2635   16.0590 N.ar    1  UNL1       -0.1848
     24 S          63.9225   90.9882   15.7784 S.2     1  UNL1        0.0372
     25 C          67.1146   93.1823   15.5307 C.3     1  UNL1        0.4529
     26 F          68.1904   94.2264   15.5813 F       1  UNL1       -0.1631
     27 F          66.3878   93.9816   14.4901 F       1  UNL1       -0.1631
     28 F          67.8415   92.3830   16.5713 F       1  UNL1       -0.1631
@<TRIPOS>BOND
     1     2     1    1
     2     2     3    1
     3     3     4   ar
     4     4     5   ar
     5     5     6   ar
     6     6    20    1
     7    20    21   ar
     8    21    22   ar
     9    22    25    1
    10    25    26    1
    11    25    27    1
    12    25    28    1
    13    22    23   ar
    14    23    24   ar
    15     6     7   ar
    16     7     8    1
    17     8     9    1
    18     9    10    1
    19    10    11   am
    20    11    12    2
    21    11    13    1
    22    13    14   ar
    23    14    15   ar
    24    15    16   ar
    25    16    17    1
    26    16    18   ar
    27    18    19   ar
    28    10     2    1
    29    19    13   ar
    30     7     3   ar
    31    24    20   ar
@<TRIPOS>MOLECULE
*****
 28 31 0 0 0
SMALL
GASTEIGER

@<TRIPOS>ATOM
      1 C          45.0807   81.0135   20.7207 C.3     1  UNL1        0.0298
      2 C          45.0877   80.4670   19.3238 C.3     1  UNL1        0.1343
      3 C          44.6425   81.3283   18.1792 C.ar    1  UNL1        0.1615
      4 N          44.1476   82.7431   18.1210 N.ar    1  UNL1       -0.1316
      5 N          43.8488   83.0709   16.6881 N.ar    1  UNL1       -0.1268
      6 C          44.1589   81.8587   15.8608 C.ar    1  UNL1        0.1917
      7 N          44.6495   80.7817   16.7824 N.ar    1  UNL1       -0.2940
      8 C          45.1016   79.3739   16.5301 C.3     1  UNL1        0.1302
      9 C          45.5468   78.5127   17.6747 C.3     1  UNL1        0.1186
     10 N          45.5398   79.0592   19.0715 N.am    1  UNL1       -0.2688
     11 C          45.9850   78.1979   20.2161 C.2     1  UNL1        0.2494
     12 O          45.9780   78.7445   21.6130 O.2     1  UNL1       -0.2699
     13 C          46.4371   76.7901   19.9639 C.ar    1  UNL1        0.0537
     14 C          47.8975   76.4893   19.8004 C.ar    1  UNL1        0.0068
     15 C          48.3497   75.0814   19.5481 C.ar    1  UNL1        0.0298
     16 C          47.3414   73.9745   19.4594 C.ar    1  UNL1        0.1401
     17 F          47.7934   72.5666   19.2071 F       1  UNL1       -0.2042
     18 C          45.8809   74.2753   19.6228 C.ar    1  UNL1        0.0298
     19 C          45.4288   75.6831   19.8751 C.ar    1  UNL1        0.0068
     20 C          44.0055   81.7438   14.3731 C.ar    1  UNL1        0.1655
     21 N          43.9700   80.4671   13.5864 N.ar    1  UNL1       -0.2116
     22 C          43.8031   80.8197   12.1380 C.ar    1  UNL1        0.2429
     23 N          43.7355   82.3142   12.0295 N.ar    1  UNL1       -0.1848
     24 S          43.8606   82.8853   13.4108 S.2     1  UNL1        0.0372
     25 C          43.7187   79.8482   10.9982 C.3     1  UNL1        0.4529
     26 F          43.6343   78.8767    9.8584 F       1  UNL1       -0.1631
     27 F          43.7112   80.9901   10.0255 F       1  UNL1       -0.1631
     28 F          43.7263   78.7063   11.9708 F       1  UNL1       -0.1631
@<TRIPOS>BOND
     1     2     1    1
     2     2     3    1
     3     3     4   ar
     4     4     5   ar
     5     5     6   ar
     6     6    20    1
     7    20    21   ar
     8    21    22   ar
     9    22    25    1
    10    25    26    1
    11    25    27    1
    12    25    28    1
    13    22    23   ar
    14    23    24   ar
    15     6     7   ar
    16     7     8    1
    17     8     9    1
    18     9    10    1
    19    10    11   am
    20    11    12    2
    21    11    13    1
    22    13    14   ar
    23    14    15   ar
    24    15    16   ar
    25    16    17    1
    26    16    18   ar
    27    18    19   ar
    28    10     2    1
    29    19    13   ar
    30     7     3   ar
    31    24    20   ar
@<TRIPOS>MOLECULE
*****
 28 31 0 0 0
SMALL
GASTEIGER

@<TRIPOS>ATOM
      1 C          64.4363   83.0628   10.3209 C.3     1  UNL1        0.0298
      2 C          63.4420   84.1808   10.4287 C.3     1  UNL1        0.1343
      3 C          62.7460   84.6867    9.2000 C.ar    1  UNL1        0.1615
      4 N          62.8348   84.2828    7.7581 N.ar    1  UNL1       -0.1316
      5 N          61.8954   85.1512    6.9749 N.ar    1  UNL1       -0.1268
      6 C          61.2261   86.0918    7.9327 C.ar    1  UNL1        0.1917
      7 N          61.7518   85.8047    9.3079 N.ar    1  UNL1       -0.2940
      8 C          61.4536   86.4168   10.6444 C.3     1  UNL1        0.1302
      9 C          62.1497   85.9110   11.8731 C.3     1  UNL1        0.1186
     10 N          63.1438   84.7930   11.7652 N.am    1  UNL1       -0.2688
     11 C          63.8399   84.2872   12.9940 C.2     1  UNL1        0.2494
     12 O          64.8341   83.1692   12.8861 O.2     1  UNL1       -0.2699
     13 C          63.5418   84.8993   14.3305 C.ar    1  UNL1        0.0537
     14 C          64.2830   86.1248   14.7763 C.ar    1  UNL1        0.0068
     15 C          63.9848   86.7370   16.1129 C.ar    1  UNL1        0.0298
     16 C          62.9455   86.1237   17.0036 C.ar    1  UNL1        0.1401
     17 F          62.6472   86.7357   18.3402 F       1  UNL1       -0.2042
     18 C          62.2042   84.8981   16.5578 C.ar    1  UNL1        0.0298
     19 C          62.5024   84.2859   15.2213 C.ar    1  UNL1        0.0068
     20 C          60.2096   87.1361    7.5776 C.ar    1  UNL1        0.1655
     21 N          60.4402   88.3269    6.6951 N.ar    1  UNL1       -0.2116
     22 C          59.1570   89.0996    6.6147 C.ar    1  UNL1        0.2429
     23 N          58.1334   88.3865    7.4476 N.ar    1  UNL1       -0.1848
     24 S          58.7839   87.1729    8.0426 S.2     1  UNL1        0.0372
     25 C          58.9363   90.3637    5.8379 C.3     1  UNL1        0.4529
     26 F          58.7156   91.6278    5.0611 F       1  UNL1       -0.1631
     27 F          57.4582   90.2442    6.0635 F       1  UNL1       -0.1631
     28 F          60.4144   90.4832    5.6124 F       1  UNL1       -0.1631
@<TRIPOS>BOND
     1     2     1    1
     2     2     3    1
     3     3     4   ar
     4     4     5   ar
     5     5     6   ar
     6     6    20    1
     7    20    21   ar
     8    21    22   ar
     9    22    25    1
    10    25    26    1
    11    25    27    1
    12    25    28    1
    13    22    23   ar
    14    23    24   ar
    15     6     7   ar
    16     7     8    1
    17     8     9    1
    18     9    10    1
    19    10    11   am
    20    11    12    2
    21    11    13    1
    22    13    14   ar
    23    14    15   ar
    24    15    16   ar
    25    16    17    1
    26    16    18   ar
    27    18    19   ar
    28    10     2    1
    29    19    13   ar
    30     7     3   ar
    31    24    20   ar
