@<TRIPOS>MOLECULE
*****
 31 35 0 0 0
SMALL
GASTEIGER

@<TRIPOS>ATOM
      1 N          64.5039   90.9595   14.0826 N.pl3   1  UNL1       -0.2781
      2 C          64.2777   89.5266   13.7009 C.3     1  UNL1        0.0950
      3 C          63.7023   88.8155   14.8897 C.3     1  UNL1        0.0373
      4 C          63.5728   89.8089   16.0061 C.3     1  UNL1        0.0373
      5 C          64.0682   91.1339   15.5073 C.3     1  UNL1        0.0950
      6 C          63.1500   88.3851   16.2163 C.3     1  UNL1        0.0577
      7 C          66.1927   94.1709   11.4209 C.ar    1  UNL1        0.0937
      8 C          65.3777   93.0589   10.8301 C.ar    1  UNL1        0.1079
      9 N          64.8147   91.9884   11.7173 N.ar    1  UNL1       -0.2119
     10 C          65.0668   92.0299   13.1954 C.ar    1  UNL1        0.2202
     11 N          65.8819   93.1420   13.7862 N.ar    1  UNL1       -0.2119
     12 C          66.4448   94.2124   12.8990 C.ar    1  UNL1        0.1079
     13 O          66.6228   96.6841   10.9221 O.2     1  UNL1       -0.2680
     14 C          66.7557   95.2414   10.5337 C.2     1  UNL1        0.2708
     15 N          67.4516   94.8692    9.2581 N.am    1  UNL1       -0.1934
     16 O          68.0146   95.9396    8.3709 O.3     1  UNL1       -0.2949
     17 H          67.5388   93.9223    9.0032 H       1  UNL1        0.1825
     18 H          67.8442   96.8092    8.7654 H       1  UNL1        0.2414
     19 N          62.5871   87.3147   17.1035 N.3     1  UNL1       -0.2947
     20 H          61.6443   87.1189   16.7669 H       1  UNL1        0.1235
     21 C          63.2876   85.9936   17.2221 C.3     1  UNL1        0.0956
     22 C          63.4694   85.1296   16.0094 C.ar    1  UNL1       -0.0064
     23 C          64.5753   85.4221   15.0391 C.ar    1  UNL1       -0.0029
     24 C          64.7571   84.5582   13.8265 C.ar    1  UNL1       -0.0003
     25 C          63.8331   83.4016   13.5841 C.ar    1  UNL1       -0.0000
     26 C          64.0149   82.5377   12.3715 C.ar    1  UNL1       -0.0000
     27 C          63.0909   81.3812   12.1292 C.ar    1  UNL1       -0.0000
     28 C          61.9851   81.0887   13.0995 C.ar    1  UNL1       -0.0000
     29 C          61.8032   81.9527   14.3121 C.ar    1  UNL1       -0.0000
     30 C          62.7272   83.1091   14.5544 C.ar    1  UNL1       -0.0003
     31 C          62.5454   83.9731   15.7671 C.ar    1  UNL1       -0.0029
@<TRIPOS>BOND
     1    13    14    2
     2    14    15   am
     3    15    16    1
     4    14     7    1
     5     7     8   ar
     6     8     9   ar
     7     9    10   ar
     8    10     1    1
     9     1     2    1
    10     3     2    1
    11     3     4    1
    12     4     5    1
    13     4     6    1
    14     6    19    1
    15    19    21    1
    16    21    22    1
    17    22    23   ar
    18    23    24   ar
    19    24    25   ar
    20    25    26   ar
    21    26    27   ar
    22    27    28   ar
    23    28    29   ar
    24    29    30   ar
    25    30    31   ar
    26    10    11   ar
    27    11    12   ar
    28    12     7   ar
    29     5     1    1
    30    31    22   ar
    31     6     3    1
    32    30    25   ar
    33    15    17    1
    34    16    18    1
    35    19    20    1
@<TRIPOS>MOLECULE
*****
 31 35 0 0 0
SMALL
GASTEIGER

@<TRIPOS>ATOM
      1 N          63.1006   90.6030   11.6339 N.pl3   1  UNL1       -0.2781
      2 C          62.9961   90.9153   10.1705 C.3     1  UNL1        0.0950
      3 C          61.8618   90.1128    9.6051 C.3     1  UNL1        0.0373
      4 C          61.2653   89.3047   10.7192 C.3     1  UNL1        0.0373
      5 C          62.0309   89.6077   11.9730 C.3     1  UNL1        0.0950
      6 C          60.6986   89.2055    9.3339 C.3     1  UNL1        0.0577
      7 C          66.0971   92.3464   14.5030 C.ar    1  UNL1        0.0937
      8 C          65.1419   91.2874   14.9678 C.ar    1  UNL1        0.1079
      9 N          64.1430   90.7062   14.0114 N.ar    1  UNL1       -0.2119
     10 C          64.0994   91.1841   12.5902 C.ar    1  UNL1        0.2202
     11 N          65.0547   92.2432   12.1255 N.ar    1  UNL1       -0.2119
     12 C          66.0534   92.8243   13.0818 C.ar    1  UNL1        0.1079
     13 O          66.7721   93.0140   16.9214 O.2     1  UNL1       -0.2680
     14 C          67.0959   92.9276   15.4594 C.2     1  UNL1        0.2708
     15 N          68.4186   93.4223   14.9536 N.am    1  UNL1       -0.1934
     16 O          69.4174   94.0035   15.9099 O.3     1  UNL1       -0.2949
     17 H          68.6311   93.3656   13.9940 H       1  UNL1        0.1825
     18 H          69.0532   93.9850   16.8087 H       1  UNL1        0.2414
     19 N          59.6998   88.6244    8.3775 N.3     1  UNL1       -0.2947
     20 H          59.8980   89.0294    7.4626 H       1  UNL1        0.1235
     21 C          59.6215   87.1388    8.1857 C.3     1  UNL1        0.0956
     22 C          60.7724   86.2681    8.5947 C.ar    1  UNL1       -0.0064
     23 C          61.6668   85.6679    7.5508 C.ar    1  UNL1       -0.0029
     24 C          62.8177   84.7972    7.9598 C.ar    1  UNL1       -0.0003
     25 C          63.0742   84.5266    9.4128 C.ar    1  UNL1       -0.0000
     26 C          64.2250   83.6559    9.8218 C.ar    1  UNL1       -0.0000
     27 C          64.4814   83.3853   11.2747 C.ar    1  UNL1       -0.0000
     28 C          63.5870   83.9855   12.3186 C.ar    1  UNL1       -0.0000
     29 C          62.4361   84.8562   11.9096 C.ar    1  UNL1       -0.0000
     30 C          62.1797   85.1268   10.4567 C.ar    1  UNL1       -0.0003
     31 C          61.0288   85.9975   10.0476 C.ar    1  UNL1       -0.0029
@<TRIPOS>BOND
     1    13    14    2
     2    14    15   am
     3    15    16    1
     4    14     7    1
     5     7     8   ar
     6     8     9   ar
     7     9    10   ar
     8    10     1    1
     9     1     2    1
    10     3     2    1
    11     3     4    1
    12     4     5    1
    13     4     6    1
    14     6    19    1
    15    19    21    1
    16    21    22    1
    17    22    23   ar
    18    23    24   ar
    19    24    25   ar
    20    25    26   ar
    21    26    27   ar
    22    27    28   ar
    23    28    29   ar
    24    29    30   ar
    25    30    31   ar
    26    10    11   ar
    27    11    12   ar
    28    12     7   ar
    29     5     1    1
    30    31    22   ar
    31     6     3    1
    32    30    25   ar
    33    15    17    1
    34    16    18    1
    35    19    20    1
@<TRIPOS>MOLECULE
*****
 31 35 0 0 0
SMALL
GASTEIGER

@<TRIPOS>ATOM
      1 N          63.7574   86.9796   13.5622 N.pl3   1  UNL1       -0.2781
      2 C          64.4400   87.5741   14.7582 C.3     1  UNL1        0.0950
      3 C          64.5056   89.0600   14.5635 C.3     1  UNL1        0.0373
      4 C          63.8635   89.3838   13.2471 C.3     1  UNL1        0.0373
      5 C          63.4011   88.0980   12.6282 C.3     1  UNL1        0.0950
      6 C          64.4250   90.4838   14.0984 C.3     1  UNL1        0.0577
      7 C          62.9245   82.6082   12.8931 C.ar    1  UNL1        0.0937
      8 C          63.4348   83.0796   14.2226 C.ar    1  UNL1        0.1079
      9 N          63.7124   84.5368   14.4456 N.ar    1  UNL1       -0.2119
     10 C          63.4798   85.5225   13.3392 C.ar    1  UNL1        0.2202
     11 N          62.9695   85.0511   12.0097 N.ar    1  UNL1       -0.2119
     12 C          62.6919   83.5940   11.7867 C.ar    1  UNL1        0.1079
     13 O          62.0600   80.3219   13.7737 O.2     1  UNL1       -0.2680
     14 C          62.6469   81.1511   12.6701 C.2     1  UNL1        0.2708
     15 N          62.9562   80.5232   11.3434 N.am    1  UNL1       -0.1934
     16 O          62.6786   79.0661   11.1203 O.3     1  UNL1       -0.2949
     17 H          63.3415   81.0674   10.6191 H       1  UNL1        0.1825
     18 H          62.3033   78.6811   11.9277 H       1  UNL1        0.2414
     19 N          64.7026   91.9409   14.3214 N.3     1  UNL1       -0.2947
     20 H          64.4804   92.1370   15.2974 H       1  UNL1        0.1235
     21 C          66.0761   92.4896   14.0714 C.3     1  UNL1        0.0956
     22 C          66.4472   92.9891   12.7065 C.ar    1  UNL1       -0.0064
     23 C          67.0641   92.0550   11.7081 C.ar    1  UNL1       -0.0029
     24 C          67.4352   92.5544   10.3433 C.ar    1  UNL1       -0.0003
     25 C          67.1893   93.9881    9.9768 C.ar    1  UNL1       -0.0000
     26 C          67.5604   94.4875    8.6120 C.ar    1  UNL1       -0.0000
     27 C          67.3145   95.9211    8.2455 C.ar    1  UNL1       -0.0000
     28 C          66.6975   96.8552    9.2439 C.ar    1  UNL1       -0.0000
     29 C          66.3264   96.3558   10.6087 C.ar    1  UNL1       -0.0000
     30 C          66.5723   94.9222   10.9752 C.ar    1  UNL1       -0.0003
     31 C          66.2012   94.4227   12.3401 C.ar    1  UNL1       -0.0029
@<TRIPOS>BOND
     1    13    14    2
     2    14    15   am
     3    15    16    1
     4    14     7    1
     5     7     8   ar
     6     8     9   ar
     7     9    10   ar
     8    10     1    1
     9     1     2    1
    10     3     2    1
    11     3     4    1
    12     4     5    1
    13     4     6    1
    14     6    19    1
    15    19    21    1
    16    21    22    1
    17    22    23   ar
    18    23    24   ar
    19    24    25   ar
    20    25    26   ar
    21    26    27   ar
    22    27    28   ar
    23    28    29   ar
    24    29    30   ar
    25    30    31   ar
    26    10    11   ar
    27    11    12   ar
    28    12     7   ar
    29     5     1    1
    30    31    22   ar
    31     6     3    1
    32    30    25   ar
    33    15    17    1
    34    16    18    1
    35    19    20    1
@<TRIPOS>MOLECULE
*****
 31 35 0 0 0
SMALL
GASTEIGER

@<TRIPOS>ATOM
      1 N          61.4475   86.4415    9.9626 N.pl3   1  UNL1       -0.2781
      2 C          61.2797   86.4575   11.4530 C.3     1  UNL1        0.0950
      3 C          62.1498   85.3798   12.0290 C.3     1  UNL1        0.0373
      4 C          62.8552   84.6978   10.8945 C.3     1  UNL1        0.0373
      5 C          62.4212   85.3540    9.6173 C.3     1  UNL1        0.0950
      6 C          63.0962   84.2494   12.3054 C.3     1  UNL1        0.0577
      7 C          59.3908   89.1761    7.0399 C.ar    1  UNL1        0.0937
      8 C          59.3285   87.6898    6.8478 C.ar    1  UNL1        0.1079
      9 N          60.0141   86.7782    7.8220 N.ar    1  UNL1       -0.2119
     10 C          60.7619   87.3530    8.9884 C.ar    1  UNL1        0.2202
     11 N          60.8241   88.8394    9.1805 N.ar    1  UNL1       -0.2119
     12 C          60.1385   89.7509    8.2063 C.ar    1  UNL1        0.1079
     13 O          59.5169   90.9857    5.1800 O.2     1  UNL1       -0.2680
     14 C          58.7052   90.0877    6.0657 C.2     1  UNL1        0.2708
     15 N          57.2078   90.1013    5.9773 N.am    1  UNL1       -0.1934
     16 O          56.5222   91.0128    5.0032 O.3     1  UNL1       -0.2949
     17 H          56.6751   89.5118    6.5587 H       1  UNL1        0.1825
     18 H          57.1872   91.5206    4.5125 H       1  UNL1        0.2414
     19 N          63.7818   83.3379   13.2796 N.3     1  UNL1       -0.2947
     20 H          64.3919   82.7292   12.7341 H       1  UNL1        0.1235
     21 C          64.6187   83.9131   14.3836 C.3     1  UNL1        0.0956
     22 C          64.2183   85.2043   15.0335 C.ar    1  UNL1       -0.0064
     23 C          63.4676   85.1891   16.3321 C.ar    1  UNL1       -0.0029
     24 C          63.0671   86.4803   16.9821 C.ar    1  UNL1       -0.0003
     25 C          63.4173   87.7867   16.3334 C.ar    1  UNL1       -0.0000
     26 C          63.0168   89.0779   16.9833 C.ar    1  UNL1       -0.0000
     27 C          63.3670   90.3843   16.3347 C.ar    1  UNL1       -0.0000
     28 C          64.1176   90.3994   15.0361 C.ar    1  UNL1       -0.0000
     29 C          64.5181   89.1083   14.3862 C.ar    1  UNL1       -0.0000
     30 C          64.1679   87.8019   15.0348 C.ar    1  UNL1       -0.0003
     31 C          64.5684   86.5107   14.3849 C.ar    1  UNL1       -0.0029
@<TRIPOS>BOND
     1    13    14    2
     2    14    15   am
     3    15    16    1
     4    14     7    1
     5     7     8   ar
     6     8     9   ar
     7     9    10   ar
     8    10     1    1
     9     1     2    1
    10     3     2    1
    11     3     4    1
    12     4     5    1
    13     4     6    1
    14     6    19    1
    15    19    21    1
    16    21    22    1
    17    22    23   ar
    18    23    24   ar
    19    24    25   ar
    20    25    26   ar
    21    26    27   ar
    22    27    28   ar
    23    28    29   ar
    24    29    30   ar
    25    30    31   ar
    26    10    11   ar
    27    11    12   ar
    28    12     7   ar
    29     5     1    1
    30    31    22   ar
    31     6     3    1
    32    30    25   ar
    33    15    17    1
    34    16    18    1
    35    19    20    1
@<TRIPOS>MOLECULE
*****
 31 35 0 0 0
SMALL
GASTEIGER

@<TRIPOS>ATOM
      1 N          63.7665   86.9429   13.6055 N.pl3   1  UNL1       -0.2781
      2 C          63.4746   88.1861   12.8186 C.3     1  UNL1        0.0950
      3 C          63.8267   89.3683   13.6723 C.3     1  UNL1        0.0373
      4 C          64.3361   88.8557   14.9866 C.3     1  UNL1        0.0373
      5 C          64.2989   87.3567   14.9454 C.3     1  UNL1        0.0950
      6 C          64.2586   90.3327   14.7368 C.3     1  UNL1        0.0577
      7 C          63.1526   82.7143   12.1942 C.ar    1  UNL1        0.0937
      8 C          62.7990   83.8631   11.2970 C.ar    1  UNL1        0.1079
      9 N          63.0036   85.2728   11.7674 N.ar    1  UNL1       -0.2119
     10 C          63.5619   85.5334   13.1351 C.ar    1  UNL1        0.2202
     11 N          63.9155   84.3845   14.0323 N.ar    1  UNL1       -0.2119
     12 C          63.7109   82.9749   13.5618 C.ar    1  UNL1        0.1079
     13 O          62.6212   80.2243   12.7117 O.2     1  UNL1       -0.2680
     14 C          62.9480   81.3047   11.7238 C.2     1  UNL1        0.2708
     15 N          63.0702   80.9755   10.2655 N.am    1  UNL1       -0.1934
     16 O          62.8656   79.5660    9.7951 O.3     1  UNL1       -0.2949
     17 H          63.2847   81.6846    9.6171 H       1  UNL1        0.1825
     18 H          62.6635   78.9977   10.5547 H       1  UNL1        0.2414
     19 N          64.4632   91.7422   15.2072 N.3     1  UNL1       -0.2947
     20 H          64.2073   91.7633   16.1944 H       1  UNL1        0.1235
     21 C          65.8160   92.3808   15.0969 C.3     1  UNL1        0.0956
     22 C          66.5320   92.3981   13.7789 C.ar    1  UNL1       -0.0064
     23 C          67.7479   91.5438   13.5747 C.ar    1  UNL1       -0.0029
     24 C          68.4639   91.5611   12.2567 C.ar    1  UNL1       -0.0003
     25 C          67.9639   92.4327   11.1429 C.ar    1  UNL1       -0.0000
     26 C          68.6799   92.4499    9.8249 C.ar    1  UNL1       -0.0000
     27 C          68.1799   93.3214    8.7112 C.ar    1  UNL1       -0.0000
     28 C          66.9640   94.1757    8.9155 C.ar    1  UNL1       -0.0000
     29 C          66.2480   94.1584   10.2334 C.ar    1  UNL1       -0.0000
     30 C          66.7480   93.2869   11.3471 C.ar    1  UNL1       -0.0003
     31 C          66.0320   93.2696   12.6652 C.ar    1  UNL1       -0.0029
@<TRIPOS>BOND
     1    13    14    2
     2    14    15   am
     3    15    16    1
     4    14     7    1
     5     7     8   ar
     6     8     9   ar
     7     9    10   ar
     8    10     1    1
     9     1     2    1
    10     3     2    1
    11     3     4    1
    12     4     5    1
    13     4     6    1
    14     6    19    1
    15    19    21    1
    16    21    22    1
    17    22    23   ar
    18    23    24   ar
    19    24    25   ar
    20    25    26   ar
    21    26    27   ar
    22    27    28   ar
    23    28    29   ar
    24    29    30   ar
    25    30    31   ar
    26    10    11   ar
    27    11    12   ar
    28    12     7   ar
    29     5     1    1
    30    31    22   ar
    31     6     3    1
    32    30    25   ar
    33    15    17    1
    34    16    18    1
    35    19    20    1
@<TRIPOS>MOLECULE
*****
 31 35 0 0 0
SMALL
GASTEIGER

@<TRIPOS>ATOM
      1 N          62.8258   89.0281   11.9208 N.pl3   1  UNL1       -0.2781
      2 C          62.7506   90.5212   12.0430 C.3     1  UNL1        0.0950
      3 C          63.4874   90.9222   13.2866 C.3     1  UNL1        0.0373
      4 C          64.0179   89.6769   13.9329 C.3     1  UNL1        0.0373
      5 C          63.6091   88.5063   13.0888 C.3     1  UNL1        0.0950
      6 C          64.2742   91.0151   14.5602 C.3     1  UNL1        0.0577
      7 C          61.0189   86.5494    8.6282 C.ar    1  UNL1        0.0937
      8 C          61.9483   85.9156    9.6203 C.ar    1  UNL1        0.1079
      9 N          62.5506   86.7418   10.7179 N.ar    1  UNL1       -0.2119
     10 C          62.2235   88.2019   10.8233 C.ar    1  UNL1        0.2202
     11 N          61.2941   88.8358    9.8310 N.ar    1  UNL1       -0.2119
     12 C          60.6918   88.0096    8.7335 C.ar    1  UNL1        0.1079
     13 O          58.9623   85.8693    7.1937 O.2     1  UNL1       -0.2680
     14 C          60.4166   85.7232    7.5306 C.2     1  UNL1        0.2708
     15 N          61.2687   84.7509    6.7700 N.am    1  UNL1       -0.1934
     16 O          60.6664   83.9247    5.6724 O.3     1  UNL1       -0.2949
     17 H          62.2232   84.6550    6.9911 H       1  UNL1        0.1825
     18 H          59.7247   84.1403    5.5850 H       1  UNL1        0.2414
     19 N          64.8765   91.8414   15.6577 N.3     1  UNL1       -0.2947
     20 H          65.1112   91.1993   16.4147 H       1  UNL1        0.1235
     21 C          66.1027   92.6632   15.3912 C.3     1  UNL1        0.0956
     22 C          66.7464   92.6323   14.0366 C.ar    1  UNL1       -0.0064
     23 C          67.9054   91.7159   13.7778 C.ar    1  UNL1       -0.0029
     24 C          68.5491   91.6849   12.4234 C.ar    1  UNL1       -0.0003
     25 C          68.0340   92.5705   11.3277 C.ar    1  UNL1       -0.0000
     26 C          68.6777   92.5395    9.9732 C.ar    1  UNL1       -0.0000
     27 C          68.1625   93.4250    8.8776 C.ar    1  UNL1       -0.0000
     28 C          67.0036   94.3415    9.1364 C.ar    1  UNL1       -0.0000
     29 C          66.3598   94.3724   10.4909 C.ar    1  UNL1       -0.0000
     30 C          66.8750   93.4869   11.5865 C.ar    1  UNL1       -0.0003
     31 C          66.2313   93.5178   12.9410 C.ar    1  UNL1       -0.0029
@<TRIPOS>BOND
     1    13    14    2
     2    14    15   am
     3    15    16    1
     4    14     7    1
     5     7     8   ar
     6     8     9   ar
     7     9    10   ar
     8    10     1    1
     9     1     2    1
    10     3     2    1
    11     3     4    1
    12     4     5    1
    13     4     6    1
    14     6    19    1
    15    19    21    1
    16    21    22    1
    17    22    23   ar
    18    23    24   ar
    19    24    25   ar
    20    25    26   ar
    21    26    27   ar
    22    27    28   ar
    23    28    29   ar
    24    29    30   ar
    25    30    31   ar
    26    10    11   ar
    27    11    12   ar
    28    12     7   ar
    29     5     1    1
    30    31    22   ar
    31     6     3    1
    32    30    25   ar
    33    15    17    1
    34    16    18    1
    35    19    20    1
@<TRIPOS>MOLECULE
*****
 31 35 0 0 0
SMALL
GASTEIGER

@<TRIPOS>ATOM
      1 N          63.8818   91.2076   11.9859 N.pl3   1  UNL1       -0.2781
      2 C          62.6899   90.3849   12.3764 C.3     1  UNL1        0.0950
      3 C          61.8908   90.1092   11.1372 C.3     1  UNL1        0.0373
      4 C          62.5889   90.7614    9.9808 C.3     1  UNL1        0.0373
      5 C          63.8194   91.4403   10.5053 C.3     1  UNL1        0.0950
      6 C          61.3158   90.0007    9.7561 C.3     1  UNL1        0.0577
      7 C          67.0827   92.7132   14.7675 C.ar    1  UNL1        0.0937
      8 C          67.2731   92.8098   13.2828 C.ar    1  UNL1        0.1079
      9 N          66.2061   92.3080   12.3555 N.ar    1  UNL1       -0.2119
     10 C          64.9487   91.7095   12.9130 C.ar    1  UNL1        0.2202
     11 N          64.7583   91.6129   14.3978 N.ar    1  UNL1       -0.2119
     12 C          65.8253   92.1147   15.3250 C.ar    1  UNL1        0.1079
     13 O          69.0012   92.2420   16.4548 O.2     1  UNL1       -0.2680
     14 C          68.1497   93.2151   15.6947 C.2     1  UNL1        0.2708
     15 N          68.3650   94.6901   15.8618 N.am    1  UNL1       -0.1934
     16 O          69.4319   95.1920   16.7890 O.3     1  UNL1       -0.2949
     17 H          67.8061   95.3288   15.3629 H       1  UNL1        0.1825
     18 H          69.8859   94.4384   17.1976 H       1  UNL1        0.2414
     19 N          60.2489   89.4988    8.8289 N.3     1  UNL1       -0.2947
     20 H          60.4162   89.9367    7.9230 H       1  UNL1        0.1235
     21 C          60.1045   88.0269    8.5784 C.3     1  UNL1        0.0956
     22 C          60.8738   87.0453    9.4118 C.ar    1  UNL1       -0.0064
     23 C          60.6747   87.0050   10.8980 C.ar    1  UNL1       -0.0029
     24 C          61.4440   86.0235   11.7315 C.ar    1  UNL1       -0.0003
     25 C          62.4124   85.0820   11.0787 C.ar    1  UNL1       -0.0000
     26 C          63.1817   84.1004   11.9122 C.ar    1  UNL1       -0.0000
     27 C          64.1500   83.1591   11.2594 C.ar    1  UNL1       -0.0000
     28 C          64.3491   83.1993    9.7732 C.ar    1  UNL1       -0.0000
     29 C          63.5798   84.1809    8.9398 C.ar    1  UNL1       -0.0000
     30 C          62.6115   85.1223    9.5925 C.ar    1  UNL1       -0.0003
     31 C          61.8422   86.1039    8.7591 C.ar    1  UNL1       -0.0029
@<TRIPOS>BOND
     1    13    14    2
     2    14    15   am
     3    15    16    1
     4    14     7    1
     5     7     8   ar
     6     8     9   ar
     7     9    10   ar
     8    10     1    1
     9     1     2    1
    10     3     2    1
    11     3     4    1
    12     4     5    1
    13     4     6    1
    14     6    19    1
    15    19    21    1
    16    21    22    1
    17    22    23   ar
    18    23    24   ar
    19    24    25   ar
    20    25    26   ar
    21    26    27   ar
    22    27    28   ar
    23    28    29   ar
    24    29    30   ar
    25    30    31   ar
    26    10    11   ar
    27    11    12   ar
    28    12     7   ar
    29     5     1    1
    30    31    22   ar
    31     6     3    1
    32    30    25   ar
    33    15    17    1
    34    16    18    1
    35    19    20    1
@<TRIPOS>MOLECULE
*****
 31 35 0 0 0
SMALL
GASTEIGER

@<TRIPOS>ATOM
      1 N          61.0737   87.5973    9.6896 N.pl3   1  UNL1       -0.2781
      2 C          60.8906   89.0708    9.4770 C.3     1  UNL1        0.0950
      3 C          60.0715   89.2617    8.2349 C.3     1  UNL1        0.0373
      4 C          59.7484   87.9061    7.6799 C.3     1  UNL1        0.0373
      5 C          60.3678   86.8775    8.5789 C.3     1  UNL1        0.0950
      6 C          59.2551   89.1392    6.9826 C.3     1  UNL1        0.0577
      7 C          63.3423   85.6739   13.0666 C.ar    1  UNL1        0.0937
      8 C          63.3795   87.1630   12.8904 C.ar    1  UNL1        0.1079
      9 N          62.6233   87.8042   11.7647 N.ar    1  UNL1       -0.2119
     10 C          61.8299   86.9562   10.8153 C.ar    1  UNL1        0.2202
     11 N          61.7928   85.4670   10.9915 N.ar    1  UNL1       -0.2119
     12 C          62.5490   84.8259   12.1171 C.ar    1  UNL1        0.1079
     13 O          65.1753   85.7971   14.9037 O.2     1  UNL1       -0.2680
     14 C          64.0985   85.0327   14.1922 C.2     1  UNL1        0.2708
     15 N          63.7780   83.6271   14.6063 N.am    1  UNL1       -0.1934
     16 O          64.5341   82.9858   15.7319 O.3     1  UNL1       -0.2949
     17 H          63.0712   83.1254   14.1393 H       1  UNL1        0.1825
     18 H          65.1890   83.6115   16.0793 H       1  UNL1        0.2414
     19 N          58.4989   89.7803    5.8570 N.3     1  UNL1       -0.2947
     20 H          57.5072   89.6753    6.0711 H       1  UNL1        0.1235
     21 C          58.7210   91.2279    5.5328 C.3     1  UNL1        0.0956
     22 C          59.7994   91.6235    4.5681 C.ar    1  UNL1       -0.0064
     23 C          61.1556   90.9887    4.6575 C.ar    1  UNL1       -0.0029
     24 C          62.2339   91.3843    3.6929 C.ar    1  UNL1       -0.0003
     25 C          61.9562   92.4147    2.6387 C.ar    1  UNL1       -0.0000
     26 C          63.0346   92.8103    1.6741 C.ar    1  UNL1       -0.0000
     27 C          62.7568   93.8406    0.6200 C.ar    1  UNL1       -0.0000
     28 C          61.4007   94.4754    0.5305 C.ar    1  UNL1       -0.0000
     29 C          60.3224   94.0799    1.4952 C.ar    1  UNL1       -0.0000
     30 C          60.6001   93.0495    2.5493 C.ar    1  UNL1       -0.0003
     31 C          59.5217   92.6539    3.5140 C.ar    1  UNL1       -0.0029
@<TRIPOS>BOND
     1    13    14    2
     2    14    15   am
     3    15    16    1
     4    14     7    1
     5     7     8   ar
     6     8     9   ar
     7     9    10   ar
     8    10     1    1
     9     1     2    1
    10     3     2    1
    11     3     4    1
    12     4     5    1
    13     4     6    1
    14     6    19    1
    15    19    21    1
    16    21    22    1
    17    22    23   ar
    18    23    24   ar
    19    24    25   ar
    20    25    26   ar
    21    26    27   ar
    22    27    28   ar
    23    28    29   ar
    24    29    30   ar
    25    30    31   ar
    26    10    11   ar
    27    11    12   ar
    28    12     7   ar
    29     5     1    1
    30    31    22   ar
    31     6     3    1
    32    30    25   ar
    33    15    17    1
    34    16    18    1
    35    19    20    1
@<TRIPOS>MOLECULE
*****
 31 35 0 0 0
SMALL
GASTEIGER

@<TRIPOS>ATOM
      1 N          64.5994   90.1391   13.8374 N.pl3   1  UNL1       -0.2781
      2 C          64.5070   89.8529   15.3069 C.3     1  UNL1        0.0950
      3 C          64.0242   88.4426   15.4751 C.3     1  UNL1        0.0373
      4 C          63.8183   87.8573   14.1095 C.3     1  UNL1        0.0373
      5 C          64.1738   88.9057   13.0973 C.3     1  UNL1        0.0950
      6 C          63.5397   87.0306   15.3297 C.3     1  UNL1        0.0577
      7 C          65.9214   94.0168   11.9758 C.ar    1  UNL1        0.0937
      8 C          66.3097   93.6919   13.3877 C.ar    1  UNL1        0.1079
      9 N          65.8691   92.3993   14.0083 N.ar    1  UNL1       -0.2119
     10 C          65.0401   91.4316   13.2169 C.ar    1  UNL1        0.2202
     11 N          64.6517   91.7565   11.8049 N.ar    1  UNL1       -0.2119
     12 C          65.0924   93.0491   11.1843 C.ar    1  UNL1        0.1079
     13 O          65.8779   96.6138   11.9155 O.2     1  UNL1       -0.2680
     14 C          66.3620   95.3094   11.3552 C.2     1  UNL1        0.2708
     15 N          67.2868   95.2975   10.1742 N.am    1  UNL1       -0.1934
     16 O          67.7275   96.5900    9.5536 O.3     1  UNL1       -0.2949
     17 H          67.6045   94.4413    9.8064 H       1  UNL1        0.1825
     18 H          67.3265   97.3320   10.0328 H       1  UNL1        0.2414
     19 N          63.0990   85.7380   15.9502 N.3     1  UNL1       -0.2947
     20 H          62.1061   85.8364   16.1619 H       1  UNL1        0.1235
     21 C          63.2553   84.4517   15.1946 C.3     1  UNL1        0.0956
     22 C          63.2914   84.4623   13.6951 C.ar    1  UNL1       -0.0064
     23 C          64.3086   83.6376   12.9635 C.ar    1  UNL1       -0.0029
     24 C          64.3448   83.6482   11.4640 C.ar    1  UNL1       -0.0003
     25 C          63.3637   84.4835   10.6960 C.ar    1  UNL1       -0.0000
     26 C          63.3999   84.4941    9.1965 C.ar    1  UNL1       -0.0000
     27 C          62.4188   85.3294    8.4285 C.ar    1  UNL1       -0.0000
     28 C          61.4016   86.1540    9.1601 C.ar    1  UNL1       -0.0000
     29 C          61.3654   86.1434   10.6596 C.ar    1  UNL1       -0.0000
     30 C          62.3465   85.3082   11.4275 C.ar    1  UNL1       -0.0003
     31 C          62.3103   85.2975   12.9271 C.ar    1  UNL1       -0.0029
@<TRIPOS>BOND
     1    13    14    2
     2    14    15   am
     3    15    16    1
     4    14     7    1
     5     7     8   ar
     6     8     9   ar
     7     9    10   ar
     8    10     1    1
     9     1     2    1
    10     3     2    1
    11     3     4    1
    12     4     5    1
    13     4     6    1
    14     6    19    1
    15    19    21    1
    16    21    22    1
    17    22    23   ar
    18    23    24   ar
    19    24    25   ar
    20    25    26   ar
    21    26    27   ar
    22    27    28   ar
    23    28    29   ar
    24    29    30   ar
    25    30    31   ar
    26    10    11   ar
    27    11    12   ar
    28    12     7   ar
    29     5     1    1
    30    31    22   ar
    31     6     3    1
    32    30    25   ar
    33    15    17    1
    34    16    18    1
    35    19    20    1
