@<TRIPOS>MOLECULE
*****
 38 42 0 0 0
SMALL
GASTEIGER

@<TRIPOS>ATOM
      1 C          63.8294   89.0660   15.6811 C.ar    1  UNL1       -0.0214
      2 C          64.4945   88.2879   14.5845 C.ar    1  UNL1       -0.0011
      3 C          64.4818   86.7883   14.6149 C.ar    1  UNL1        0.0366
      4 C          63.8040   86.0667   15.7418 C.ar    1  UNL1        0.1385
      5 C          63.1389   86.8447   16.8383 C.ar    1  UNL1        0.0366
      6 C          63.1516   88.3444   16.8080 C.ar    1  UNL1       -0.0011
      7 C          63.8422   90.5656   15.6507 C.3     1  UNL1        0.0375
      8 N          65.3746   92.3074   12.8701 N.am    1  UNL1       -0.2546
      9 C          64.1675   91.4329   13.0385 C.2     1  UNL1        0.2315
     10 O          63.0953   90.9176   12.1248 O.2     1  UNL1       -0.2745
     11 C          64.4769   91.2871   14.4990 C.3     1  UNL1        0.1052
     12 C          65.6840   92.1615   14.3307 C.3     1  UNL1        0.1249
     13 C          67.2789   94.4718    9.4149 C.ar    1  UNL1        0.1388
     14 C          67.5675   93.0171    9.6394 C.ar    1  UNL1        0.0382
     15 C          66.9327   92.2956   10.7912 C.ar    1  UNL1        0.0180
     16 C          66.0094   93.0289   11.7184 C.ar    1  UNL1        0.0543
     17 C          65.7207   94.4836   11.4938 C.ar    1  UNL1        0.0180
     18 C          66.3555   95.2050   10.3420 C.ar    1  UNL1        0.0382
     19 C          67.5739   96.6303    7.9992 C.3     1  UNL1        0.2525
     20 O          67.9136   95.1933    8.2631 O.3     1  UNL1       -0.4714
     21 C          66.7562   92.6768   15.2444 C.2     1  UNL1        0.0692
     22 O          68.1072   93.0256   14.6935 O.co2   1  UNL1       -0.5475
     23 O          66.4776   92.8432   16.7088 O.co2   1  UNL1       -0.5475
     24 O          63.7913   84.5670   15.7721 O.3     1  UNL1       -0.4750
     25 C          64.0635   83.7892   14.5188 C.3     1  UNL1        0.2118
     26 C          62.9333   83.4230   13.6031 C.3     1  UNL1        0.0960
     27 C          62.7821   84.1190   12.2829 C.ar    1  UNL1        0.0960
     28 N          61.9319   85.3253   12.0145 N.ar    1  UNL1       -0.2129
     29 C          62.0789   85.6827   10.5651 C.ar    1  UNL1        0.2289
     30 O          63.0198   84.6973    9.9378 O.2     1  UNL1       -0.4392
     31 C          63.4544   83.7308   10.9994 C.ar    1  UNL1        0.1387
     32 C          64.3961   82.5785   10.8108 C.3     1  UNL1        0.0738
     33 C          61.4034   86.8250    9.8658 C.ar    1  UNL1        0.0535
     34 C          60.3633   86.5542    8.8196 C.ar    1  UNL1        0.0046
     35 C          59.6879   87.6965    8.1202 C.ar    1  UNL1        0.0002
     36 C          60.0526   89.1095    8.4672 C.ar    1  UNL1        0.0000
     37 C          61.0928   89.3802    9.5135 C.ar    1  UNL1        0.0002
     38 C          61.7682   88.2379   10.2128 C.ar    1  UNL1        0.0046
@<TRIPOS>UNITY_ATOM_ATTR
22 1
charge -1
@<TRIPOS>BOND
     1    19    20    1
     2    20    13    1
     3    13    14   ar
     4    14    15   ar
     5    15    16   ar
     6    16     8    1
     7     8     9   am
     8     9    10    2
     9     9    11    1
    10    11     7    1
    11     7     1    1
    12     1     2   ar
    13     2     3   ar
    14     3     4   ar
    15     4    24    1
    16    24    25    1
    17    25    26    1
    18    26    27    1
    19    27    28   ar
    20    28    29   ar
    21    29    33    1
    22    33    34   ar
    23    34    35   ar
    24    35    36   ar
    25    36    37   ar
    26    37    38   ar
    27    29    30   ar
    28    30    31   ar
    29    31    32    1
    30     4     5   ar
    31     5     6   ar
    32    11    12    1
    33    12    21    1
    34    21    22   ar
    35    21    23   ar
    36    16    17   ar
    37    17    18   ar
    38    18    13   ar
    39    12     8    1
    40     6     1   ar
    41    31    27   ar
    42    38    33   ar
@<TRIPOS>MOLECULE
*****
 38 42 0 0 0
SMALL
GASTEIGER

@<TRIPOS>ATOM
      1 C          63.8056   88.9326   15.7437 C.ar    1  UNL1       -0.0214
      2 C          63.1603   88.1589   16.8551 C.ar    1  UNL1       -0.0011
      3 C          63.1732   86.6592   16.8309 C.ar    1  UNL1        0.0366
      4 C          63.8315   85.9330   15.6953 C.ar    1  UNL1        0.1385
      5 C          64.4768   86.7067   14.5840 C.ar    1  UNL1        0.0366
      6 C          64.4639   88.2065   14.6082 C.ar    1  UNL1       -0.0011
      7 C          63.7926   90.4323   15.7679 C.3     1  UNL1        0.0375
      8 N          65.3695   92.3001   13.0961 N.am    1  UNL1       -0.2546
      9 C          65.6239   92.1294   14.5646 C.2     1  UNL1        0.2315
     10 O          66.6367   92.6617   15.5345 O.2     1  UNL1       -0.2745
     11 C          64.4458   91.2059   14.6612 C.3     1  UNL1        0.1052
     12 C          64.1914   91.3766   13.1929 C.3     1  UNL1        0.1249
     13 C          67.3290   94.6211    9.7760 C.ar    1  UNL1        0.1388
     14 C          66.6138   95.3461   10.8772 C.ar    1  UNL1        0.0382
     15 C          65.9607   94.5724   11.9840 C.ar    1  UNL1        0.0180
     16 C          66.0227   93.0737   11.9894 C.ar    1  UNL1        0.0543
     17 C          66.7379   92.3487   10.8882 C.ar    1  UNL1        0.0180
     18 C          67.3911   93.1224    9.7815 C.ar    1  UNL1        0.0382
     19 C          67.3230   96.6274    8.1254 C.3     1  UNL1        0.2525
     20 O          67.9822   95.3947    8.6693 O.3     1  UNL1       -0.4714
     21 C          63.1785   90.8442   12.2229 C.2     1  UNL1        0.0692
     22 O          62.1012   89.9149   12.6981 O.co2   1  UNL1       -0.5475
     23 O          63.2429   91.2412   10.7779 O.co2   1  UNL1       -0.5475
     24 O          63.8445   84.4332   15.6712 O.3     1  UNL1       -0.4750
     25 C          64.0420   83.7057   14.3744 C.3     1  UNL1        0.2118
     26 C          62.8634   83.4026   13.4975 C.3     1  UNL1        0.0960
     27 C          62.7259   84.0788   12.1656 C.ar    1  UNL1        0.0960
     28 N          61.8155   85.2285   11.8502 N.ar    1  UNL1       -0.2129
     29 C          62.0017   85.5842   10.4049 C.ar    1  UNL1        0.2289
     30 O          63.0271   84.6544    9.8271 O.2     1  UNL1       -0.4392
     31 C          63.4747   83.7240   10.9152 C.ar    1  UNL1        0.1387
     32 C          64.4925   82.6307   10.7773 C.3     1  UNL1        0.0738
     33 C          61.2877   86.6778    9.6671 C.ar    1  UNL1        0.0535
     34 C          60.3039   86.3358    8.5877 C.ar    1  UNL1        0.0046
     35 C          59.5900   87.4294    7.8498 C.ar    1  UNL1        0.0002
     36 C          59.8598   88.8648    8.1914 C.ar    1  UNL1        0.0000
     37 C          60.8436   89.2067    9.2708 C.ar    1  UNL1        0.0002
     38 C          61.5576   88.1132   10.0086 C.ar    1  UNL1        0.0046
@<TRIPOS>UNITY_ATOM_ATTR
22 1
charge -1
@<TRIPOS>BOND
     1    19    20    1
     2    20    13    1
     3    13    14   ar
     4    14    15   ar
     5    15    16   ar
     6    16     8    1
     7     8     9   am
     8     9    10    2
     9     9    11    1
    10    11     7    1
    11     7     1    1
    12     1     2   ar
    13     2     3   ar
    14     3     4   ar
    15     4    24    1
    16    24    25    1
    17    25    26    1
    18    26    27    1
    19    27    28   ar
    20    28    29   ar
    21    29    33    1
    22    33    34   ar
    23    34    35   ar
    24    35    36   ar
    25    36    37   ar
    26    37    38   ar
    27    29    30   ar
    28    30    31   ar
    29    31    32    1
    30     4     5   ar
    31     5     6   ar
    32    11    12    1
    33    12    21    1
    34    21    22   ar
    35    21    23   ar
    36    16    17   ar
    37    17    18   ar
    38    18    13   ar
    39    12     8    1
    40     6     1   ar
    41    31    27   ar
    42    38    33   ar
