@<TRIPOS>MOLECULE
*****
 35 40 0 0 0
SMALL
GASTEIGER

@<TRIPOS>ATOM
      1 C          61.7504   87.3065   10.6081 C.ar    1  UNL1        0.0017
      2 C          62.3986   88.5829   11.0559 C.ar    1  UNL1        0.0046
      3 C          63.2441   88.6002   12.2948 C.ar    1  UNL1        0.0548
      4 C          63.4415   87.3412   13.0858 C.ar    1  UNL1        0.1015
      5 N          64.2145   87.0538   14.3388 N.ar    1  UNL1       -0.2305
      6 C          64.0441   85.5997   14.6653 C.ar    1  UNL1        0.1246
      7 C          64.6462   84.8828   15.8373 C.3     1  UNL1        0.0722
      8 N          63.1657   84.9884   13.6142 N.ar    1  UNL1       -0.2935
      9 C          62.7934   86.0647   12.6380 C.ar    1  UNL1        0.0827
     10 C          61.9478   86.0474   11.3991 C.ar    1  UNL1        0.0191
     11 C          62.7353   83.5529   13.5504 C.ar    1  UNL1        0.0703
     12 C          61.9459   82.9558   14.6775 C.ar    1  UNL1        0.0383
     13 C          61.5155   81.5204   14.6137 C.ar    1  UNL1        0.1004
     14 N          61.8745   80.6819   13.4229 N.ar    1  UNL1       -0.2414
     15 C          62.6640   81.2790   12.2959 C.ar    1  UNL1        0.1122
     16 C          63.0231   80.4404   11.1050 C.ar    1  UNL1        0.1578
     17 F          62.5927   79.0050   11.0413 F       1  UNL1       -0.2026
     18 C          63.8125   81.0375    9.9780 C.ar    1  UNL1        0.0335
     19 C          64.2430   82.4730   10.0418 C.ar    1  UNL1        0.0321
     20 C          63.8839   83.3115   11.2325 C.ar    1  UNL1        0.1431
     21 F          64.4041   84.5347   10.9968 F       1  UNL1       -0.2041
     22 C          63.0944   82.7144   12.3596 C.ar    1  UNL1        0.0635
     23 C          59.0813   89.8485    6.9457 C.3     1  UNL1        0.0521
     24 C          59.5703   88.5601    7.5380 C.ar    1  UNL1        0.0594
     25 C          60.4158   88.5775    8.7769 C.ar    1  UNL1        0.0147
     26 C          60.9049   87.2891    9.3693 C.ar    1  UNL1        0.0028
     27 C          60.5483   85.9833    8.7228 C.ar    1  UNL1        0.0207
     28 C          59.7027   85.9660    7.4840 C.ar    1  UNL1        0.0984
     29 N          59.2137   87.2543    6.8916 N.ar    1  UNL1       -0.2481
     30 C          63.8923   89.8767   12.7426 C.ar    1  UNL1        0.1647
     31 N          63.8989   91.1737   11.9892 N.ar    1  UNL1       -0.1288
     32 N          64.6584   92.1788   12.8034 N.ar    1  UNL1       -0.1258
     33 C          65.1211   91.5030   14.0600 C.ar    1  UNL1        0.1992
     34 N          64.6477   90.0802   14.0225 N.ar    1  UNL1       -0.3187
     35 H          64.8051   89.3995   14.7161 H       1  UNL1        0.1690
@<TRIPOS>BOND
     1    23    24    1
     2    24    25   ar
     3    25    26   ar
     4    26     1    1
     5     1     2   ar
     6     2     3   ar
     7     3    30    1
     8    30    31   ar
     9    31    32   ar
    10    32    33   ar
    11    33    34   ar
    12     3     4   ar
    13     4     5   ar
    14     5     6   ar
    15     6     7    1
    16     6     8   ar
    17     8    11    1
    18    11    12   ar
    19    12    13   ar
    20    13    14   ar
    21    14    15   ar
    22    15    16   ar
    23    16    17    1
    24    16    18   ar
    25    18    19   ar
    26    19    20   ar
    27    20    21    1
    28    20    22   ar
    29     8     9   ar
    30     9    10   ar
    31    26    27   ar
    32    27    28   ar
    33    28    29   ar
    34    29    24   ar
    35    10     1   ar
    36    34    30   ar
    37     9     4   ar
    38    22    11   ar
    39    22    15   ar
    40    34    35    1
@<TRIPOS>MOLECULE
*****
 35 40 0 0 0
SMALL
GASTEIGER

@<TRIPOS>ATOM
      1 C          61.8903   88.0764   11.1015 C.ar    1  UNL1        0.0017
      2 C          62.1905   89.1313   12.1248 C.ar    1  UNL1        0.0046
      3 C          63.0259   88.7960   13.3247 C.ar    1  UNL1        0.0548
      4 C          63.5610   87.4059   13.5013 C.ar    1  UNL1        0.1015
      5 N          64.4063   86.7844   14.5734 N.ar    1  UNL1       -0.2305
      6 C          64.6284   85.3455   14.2127 C.ar    1  UNL1        0.1246
      7 C          65.4196   84.3494   15.0075 C.3     1  UNL1        0.0722
      8 N          63.9204   85.0776   12.9177 N.ar    1  UNL1       -0.2935
      9 C          63.2607   86.3510   12.4781 C.ar    1  UNL1        0.0827
     10 C          62.4254   86.6863   11.2782 C.ar    1  UNL1        0.0191
     11 C          63.8794   83.7665   12.1901 C.ar    1  UNL1        0.0703
     12 C          64.6020   83.6102   10.8849 C.ar    1  UNL1        0.0383
     13 C          64.5609   82.2992   10.1573 C.ar    1  UNL1        0.1004
     14 N          63.7973   81.1445   10.7348 N.ar    1  UNL1       -0.2414
     15 C          63.0746   81.3009   12.0399 C.ar    1  UNL1        0.1122
     16 C          62.3109   80.1461   12.6173 C.ar    1  UNL1        0.1578
     17 F          62.2698   78.8351   11.8897 F       1  UNL1       -0.2026
     18 C          61.5882   80.3025   13.9225 C.ar    1  UNL1        0.0335
     19 C          61.6293   81.6136   14.6501 C.ar    1  UNL1        0.0321
     20 C          62.3930   82.7682   14.0727 C.ar    1  UNL1        0.1431
     21 F          62.2420   83.7876   14.9448 F       1  UNL1       -0.2041
     22 C          63.1157   82.6119   12.7675 C.ar    1  UNL1        0.0635
     23 C          58.8242   86.5646    7.1883 C.3     1  UNL1        0.0521
     24 C          59.5219   87.6558    7.9450 C.ar    1  UNL1        0.0594
     25 C          60.3572   87.3206    9.1449 C.ar    1  UNL1        0.0147
     26 C          61.0550   88.4117    9.9016 C.ar    1  UNL1        0.0028
     27 C          60.9174   89.8381    9.4584 C.ar    1  UNL1        0.0207
     28 C          60.0820   90.1733    8.2584 C.ar    1  UNL1        0.0984
     29 N          59.3843   89.0822    7.5018 N.ar    1  UNL1       -0.2481
     30 C          63.3261   89.8508   14.3480 C.ar    1  UNL1        0.1647
     31 N          63.8686   91.2211   14.0687 N.ar    1  UNL1       -0.1288
     32 N          64.0143   91.9378   15.3783 N.ar    1  UNL1       -0.1258
     33 C          63.5620   91.0104   16.4671 C.ar    1  UNL1        0.1992
     34 N          63.1366   89.7206   15.8303 N.ar    1  UNL1       -0.3187
     35 H          62.7934   88.9278   16.3024 H       1  UNL1        0.1690
@<TRIPOS>BOND
     1    23    24    1
     2    24    25   ar
     3    25    26   ar
     4    26     1    1
     5     1     2   ar
     6     2     3   ar
     7     3    30    1
     8    30    31   ar
     9    31    32   ar
    10    32    33   ar
    11    33    34   ar
    12     3     4   ar
    13     4     5   ar
    14     5     6   ar
    15     6     7    1
    16     6     8   ar
    17     8    11    1
    18    11    12   ar
    19    12    13   ar
    20    13    14   ar
    21    14    15   ar
    22    15    16   ar
    23    16    17    1
    24    16    18   ar
    25    18    19   ar
    26    19    20   ar
    27    20    21    1
    28    20    22   ar
    29     8     9   ar
    30     9    10   ar
    31    26    27   ar
    32    27    28   ar
    33    28    29   ar
    34    29    24   ar
    35    10     1   ar
    36    34    30   ar
    37     9     4   ar
    38    22    11   ar
    39    22    15   ar
    40    34    35    1
@<TRIPOS>MOLECULE
*****
 35 40 0 0 0
SMALL
GASTEIGER

@<TRIPOS>ATOM
      1 C          63.0076   89.8837   11.5070 C.ar    1  UNL1        0.0017
      2 C          62.7656   89.4952   12.9355 C.ar    1  UNL1        0.0046
      3 C          63.7358   89.9126   14.0008 C.ar    1  UNL1        0.0548
      4 C          64.9477   90.7183   13.6376 C.ar    1  UNL1        0.1015
      5 N          66.0711   91.2698   14.4645 N.ar    1  UNL1       -0.2305
      6 C          67.0073   91.9991   13.5471 C.ar    1  UNL1        0.1246
      7 C          68.2671   92.7052   13.9524 C.3     1  UNL1        0.0722
      8 N          66.4625   91.8983   12.1532 N.ar    1  UNL1       -0.2935
      9 C          65.1896   91.1067   12.2091 C.ar    1  UNL1        0.0827
     10 C          64.2196   90.6894   11.1438 C.ar    1  UNL1        0.0191
     11 C          67.0819   92.4859   10.9198 C.ar    1  UNL1        0.0703
     12 C          67.8840   91.6173    9.9966 C.ar    1  UNL1        0.0383
     13 C          68.5034   92.2048    8.7633 C.ar    1  UNL1        0.1004
     14 N          68.3206   93.6610    8.4531 N.ar    1  UNL1       -0.2414
     15 C          67.5185   94.5295    9.3763 C.ar    1  UNL1        0.1122
     16 C          67.3358   95.9857    9.0660 C.ar    1  UNL1        0.1578
     17 F          67.9552   96.5733    7.8327 F       1  UNL1       -0.2026
     18 C          66.5337   96.8543    9.9891 C.ar    1  UNL1        0.0335
     19 C          65.9143   96.2667   11.2225 C.ar    1  UNL1        0.0321
     20 C          66.0971   94.8106   11.5327 C.ar    1  UNL1        0.1431
     21 F          65.4324   94.5897   12.6868 F       1  UNL1       -0.2041
     22 C          66.8992   93.9420   10.6096 C.ar    1  UNL1        0.0635
     23 C          61.0709   86.2235    8.3681 C.3     1  UNL1        0.0521
     24 C          61.0692   87.6363    8.8722 C.ar    1  UNL1        0.0594
     25 C          62.0392   88.0536    9.9375 C.ar    1  UNL1        0.0147
     26 C          62.0375   89.4664   10.4417 C.ar    1  UNL1        0.0028
     27 C          61.0658   90.4618    9.8806 C.ar    1  UNL1        0.0207
     28 C          60.0958   90.0444    8.8152 C.ar    1  UNL1        0.0984
     29 N          60.0974   88.6318    8.3111 N.ar    1  UNL1       -0.2481
     30 C          63.4938   89.5242   15.4292 C.ar    1  UNL1        0.1647
     31 N          63.3742   90.4656   16.5908 N.ar    1  UNL1       -0.1288
     32 N          63.1355   89.6493   17.8264 N.ar    1  UNL1       -0.1258
     33 C          63.1075   88.2034   17.4285 C.ar    1  UNL1        0.1992
     34 N          63.3289   88.1260   15.9470 N.ar    1  UNL1       -0.3187
     35 H          63.3605   87.3022   15.4089 H       1  UNL1        0.1690
@<TRIPOS>BOND
     1    23    24    1
     2    24    25   ar
     3    25    26   ar
     4    26     1    1
     5     1     2   ar
     6     2     3   ar
     7     3    30    1
     8    30    31   ar
     9    31    32   ar
    10    32    33   ar
    11    33    34   ar
    12     3     4   ar
    13     4     5   ar
    14     5     6   ar
    15     6     7    1
    16     6     8   ar
    17     8    11    1
    18    11    12   ar
    19    12    13   ar
    20    13    14   ar
    21    14    15   ar
    22    15    16   ar
    23    16    17    1
    24    16    18   ar
    25    18    19   ar
    26    19    20   ar
    27    20    21    1
    28    20    22   ar
    29     8     9   ar
    30     9    10   ar
    31    26    27   ar
    32    27    28   ar
    33    28    29   ar
    34    29    24   ar
    35    10     1   ar
    36    34    30   ar
    37     9     4   ar
    38    22    11   ar
    39    22    15   ar
    40    34    35    1
@<TRIPOS>MOLECULE
*****
 35 40 0 0 0
SMALL
GASTEIGER

@<TRIPOS>ATOM
      1 C          62.8513   85.6830   12.3663 C.ar    1  UNL1        0.0017
      2 C          62.0882   85.4442   11.0972 C.ar    1  UNL1        0.0046
      3 C          61.6517   86.6060   10.2546 C.ar    1  UNL1        0.0548
      4 C          61.9784   88.0064   10.6811 C.ar    1  UNL1        0.1015
      5 N          61.6823   89.3395   10.0604 N.ar    1  UNL1       -0.2305
      6 C          62.2624   90.4022   10.9460 C.ar    1  UNL1        0.1246
      7 C          62.1989   91.8814   10.7057 C.3     1  UNL1        0.0722
      8 N          62.9170   89.7259   12.1139 N.ar    1  UNL1       -0.2935
      9 C          62.7414   88.2452   11.9502 C.ar    1  UNL1        0.0827
     10 C          63.1779   87.0835   12.7928 C.ar    1  UNL1        0.0191
     11 C          63.6232   90.4101   13.2467 C.ar    1  UNL1        0.0703
     12 C          63.2398   90.1034   14.6641 C.ar    1  UNL1        0.0383
     13 C          63.9459   90.7875   15.7969 C.ar    1  UNL1        0.1004
     14 N          65.0354   91.7784   15.5123 N.ar    1  UNL1       -0.2414
     15 C          65.4188   92.0851   14.0949 C.ar    1  UNL1        0.1122
     16 C          66.5084   93.0761   13.8104 C.ar    1  UNL1        0.1578
     17 F          67.2145   93.7603   14.9432 F       1  UNL1       -0.2026
     18 C          66.8918   93.3828   12.3930 C.ar    1  UNL1        0.0335
     19 C          66.1856   92.6986   11.2602 C.ar    1  UNL1        0.0321
     20 C          65.0961   91.7077   11.5448 C.ar    1  UNL1        0.1431
     21 F          64.6646   91.2734   10.3416 F       1  UNL1       -0.2041
     22 C          64.7127   91.4010   12.9621 C.ar    1  UNL1        0.0635
     23 C          62.8181   80.5836   13.3637 C.3     1  UNL1        0.0521
     24 C          63.2712   81.9716   13.7076 C.ar    1  UNL1        0.0594
     25 C          62.8347   83.1333   12.8650 C.ar    1  UNL1        0.0147
     26 C          63.2877   84.5213   13.2088 C.ar    1  UNL1        0.0028
     27 C          64.1772   84.7476   14.3953 C.ar    1  UNL1        0.0207
     28 C          64.6136   83.5859   15.2378 C.ar    1  UNL1        0.0984
     29 N          64.1606   82.1979   14.8940 N.ar    1  UNL1       -0.2481
     30 C          60.8886   86.3671    8.9855 C.ar    1  UNL1        0.1647
     31 N          61.3011   85.4572    7.8666 N.ar    1  UNL1       -0.1288
     32 N          60.2464   85.5240    6.8020 N.ar    1  UNL1       -0.1258
     33 C          59.1821   86.4753    7.2630 C.ar    1  UNL1        0.1992
     34 N          59.5790   86.9963    8.6124 N.ar    1  UNL1       -0.3187
     35 H          59.0694   87.6385    9.1575 H       1  UNL1        0.1690
@<TRIPOS>BOND
     1    23    24    1
     2    24    25   ar
     3    25    26   ar
     4    26     1    1
     5     1     2   ar
     6     2     3   ar
     7     3    30    1
     8    30    31   ar
     9    31    32   ar
    10    32    33   ar
    11    33    34   ar
    12     3     4   ar
    13     4     5   ar
    14     5     6   ar
    15     6     7    1
    16     6     8   ar
    17     8    11    1
    18    11    12   ar
    19    12    13   ar
    20    13    14   ar
    21    14    15   ar
    22    15    16   ar
    23    16    17    1
    24    16    18   ar
    25    18    19   ar
    26    19    20   ar
    27    20    21    1
    28    20    22   ar
    29     8     9   ar
    30     9    10   ar
    31    26    27   ar
    32    27    28   ar
    33    28    29   ar
    34    29    24   ar
    35    10     1   ar
    36    34    30   ar
    37     9     4   ar
    38    22    11   ar
    39    22    15   ar
    40    34    35    1
@<TRIPOS>MOLECULE
*****
 35 40 0 0 0
SMALL
GASTEIGER

@<TRIPOS>ATOM
      1 C          61.9931   93.5600    0.5059 C.ar    1  UNL1        0.0017
      2 C          63.2651   94.2796    0.1681 C.ar    1  UNL1        0.0046
      3 C          63.3832   95.0258   -1.1278 C.ar    1  UNL1        0.0548
      4 C          62.2294   95.0522   -2.0858 C.ar    1  UNL1        0.1015
      5 N          62.0538   95.6988   -3.4279 N.ar    1  UNL1       -0.2305
      6 C          60.6732   95.3788   -3.9195 C.ar    1  UNL1        0.1246
      7 C          60.0753   95.8249   -5.2209 C.3     1  UNL1        0.0722
      8 N          59.9956   94.5344   -2.8813 N.ar    1  UNL1       -0.2935
      9 C          60.9574   94.3326   -1.7481 C.ar    1  UNL1        0.0827
     10 C          60.8393   93.5865   -0.4522 C.ar    1  UNL1        0.0191
     11 C          58.6011   93.9878   -2.9622 C.ar    1  UNL1        0.0703
     12 C          58.3504   92.6677   -3.6288 C.ar    1  UNL1        0.0383
     13 C          56.9560   92.1211   -3.7096 C.ar    1  UNL1        0.1004
     14 N          55.8121   92.8946   -3.1239 N.ar    1  UNL1       -0.2414
     15 C          56.0627   94.2148   -2.4573 C.ar    1  UNL1        0.1122
     16 C          54.9188   94.9883   -1.8715 C.ar    1  UNL1        0.1578
     17 F          53.5243   94.4417   -1.9523 F       1  UNL1       -0.2026
     18 C          55.1694   96.3085   -1.2049 C.ar    1  UNL1        0.0335
     19 C          56.5640   96.8551   -1.1241 C.ar    1  UNL1        0.0321
     20 C          57.7078   96.0815   -1.7098 C.ar    1  UNL1        0.1431
     21 F          58.8133   96.8221   -1.4818 F       1  UNL1       -0.2041
     22 C          57.4572   94.7614   -2.3764 C.ar    1  UNL1        0.0635
     23 C          59.2233   92.2301    4.6964 C.3     1  UNL1        0.0521
     24 C          60.4901   92.1489    3.8971 C.ar    1  UNL1        0.0594
     25 C          60.6082   92.8951    2.6012 C.ar    1  UNL1        0.0147
     26 C          61.8749   92.8139    1.8018 C.ar    1  UNL1        0.0028
     27 C          63.0234   91.9867    2.2984 C.ar    1  UNL1        0.0207
     28 C          62.9052   91.2406    3.5943 C.ar    1  UNL1        0.0984
     29 N          61.6386   91.3217    4.3936 N.ar    1  UNL1       -0.2481
     30 C          64.6552   95.7454   -1.4656 C.ar    1  UNL1        0.1647
     31 N          65.7160   96.1654   -0.4917 N.ar    1  UNL1       -0.1288
     32 N          66.8061   96.8509   -1.2609 N.ar    1  UNL1       -0.1258
     33 C          66.4192   96.8547   -2.7101 C.ar    1  UNL1        0.1992
     34 N          65.0899   96.1714   -2.8367 N.ar    1  UNL1       -0.3187
     35 H          64.5903   96.0278   -3.6728 H       1  UNL1        0.1690
@<TRIPOS>BOND
     1    23    24    1
     2    24    25   ar
     3    25    26   ar
     4    26     1    1
     5     1     2   ar
     6     2     3   ar
     7     3    30    1
     8    30    31   ar
     9    31    32   ar
    10    32    33   ar
    11    33    34   ar
    12     3     4   ar
    13     4     5   ar
    14     5     6   ar
    15     6     7    1
    16     6     8   ar
    17     8    11    1
    18    11    12   ar
    19    12    13   ar
    20    13    14   ar
    21    14    15   ar
    22    15    16   ar
    23    16    17    1
    24    16    18   ar
    25    18    19   ar
    26    19    20   ar
    27    20    21    1
    28    20    22   ar
    29     8     9   ar
    30     9    10   ar
    31    26    27   ar
    32    27    28   ar
    33    28    29   ar
    34    29    24   ar
    35    10     1   ar
    36    34    30   ar
    37     9     4   ar
    38    22    11   ar
    39    22    15   ar
    40    34    35    1
@<TRIPOS>MOLECULE
*****
 35 40 0 0 0
SMALL
GASTEIGER

@<TRIPOS>ATOM
      1 C          62.7059   89.9163   11.3970 C.ar    1  UNL1        0.0017
      2 C          62.6536   89.2489   12.7393 C.ar    1  UNL1        0.0046
      3 C          63.4704   89.7868   13.8767 C.ar    1  UNL1        0.0548
      4 C          64.3395   90.9920   13.6717 C.ar    1  UNL1        0.1015
      5 N          65.2491   91.7429   14.5985 N.ar    1  UNL1       -0.2305
      6 C          65.8636   92.8743   13.8290 C.ar    1  UNL1        0.1246
      7 C          66.8370   93.8807   14.3673 C.3     1  UNL1        0.0722
      8 N          65.3338   92.8227   12.4266 N.ar    1  UNL1       -0.2935
      9 C          64.3919   91.6594   12.3294 C.ar    1  UNL1        0.0827
     10 C          63.5751   91.1216   11.1921 C.ar    1  UNL1        0.0191
     11 C          65.6844   93.7685   11.3163 C.ar    1  UNL1        0.0703
     12 C          64.9335   95.0581   11.1644 C.ar    1  UNL1        0.0383
     13 C          65.2840   96.0038   10.0542 C.ar    1  UNL1        0.1004
     14 N          66.3854   95.6599    9.0958 N.ar    1  UNL1       -0.2414
     15 C          67.1363   94.3703    9.2476 C.ar    1  UNL1        0.1122
     16 C          68.2378   94.0264    8.2891 C.ar    1  UNL1        0.1578
     17 F          68.5883   94.9721    7.1789 F       1  UNL1       -0.2026
     18 C          68.9886   92.7368    8.4410 C.ar    1  UNL1        0.0335
     19 C          68.6381   91.7910    9.5513 C.ar    1  UNL1        0.0321
     20 C          67.5367   92.1349   10.5097 C.ar    1  UNL1        0.1431
     21 F          67.4634   91.1037   11.3779 F       1  UNL1       -0.2041
     22 C          66.7858   93.4246   10.3579 C.ar    1  UNL1        0.0635
     23 C          61.3911   85.9830    8.2665 C.3     1  UNL1        0.0521
     24 C          61.2317   87.4119    8.6944 C.ar    1  UNL1        0.0594
     25 C          62.0485   87.9497    9.8317 C.ar    1  UNL1        0.0147
     26 C          61.8892   89.3785   10.2597 C.ar    1  UNL1        0.0028
     27 C          60.9131   90.2695    9.5502 C.ar    1  UNL1        0.0207
     28 C          60.0963   89.7316    8.4128 C.ar    1  UNL1        0.0984
     29 N          60.2556   88.3029    7.9849 N.ar    1  UNL1       -0.2481
     30 C          63.4180   89.1194   15.2190 C.ar    1  UNL1        0.1647
     31 N          63.1506   89.7965   16.5305 N.ar    1  UNL1       -0.1288
     32 N          63.1912   88.7532   17.6075 N.ar    1  UNL1       -0.1258
     33 C          63.4837   87.4313   16.9617 C.ar    1  UNL1        0.1992
     34 N          63.6239   87.6576   15.4855 N.ar    1  UNL1       -0.3187
     35 H          63.8172   86.9679   14.8101 H       1  UNL1        0.1690
@<TRIPOS>BOND
     1    23    24    1
     2    24    25   ar
     3    25    26   ar
     4    26     1    1
     5     1     2   ar
     6     2     3   ar
     7     3    30    1
     8    30    31   ar
     9    31    32   ar
    10    32    33   ar
    11    33    34   ar
    12     3     4   ar
    13     4     5   ar
    14     5     6   ar
    15     6     7    1
    16     6     8   ar
    17     8    11    1
    18    11    12   ar
    19    12    13   ar
    20    13    14   ar
    21    14    15   ar
    22    15    16   ar
    23    16    17    1
    24    16    18   ar
    25    18    19   ar
    26    19    20   ar
    27    20    21    1
    28    20    22   ar
    29     8     9   ar
    30     9    10   ar
    31    26    27   ar
    32    27    28   ar
    33    28    29   ar
    34    29    24   ar
    35    10     1   ar
    36    34    30   ar
    37     9     4   ar
    38    22    11   ar
    39    22    15   ar
    40    34    35    1
