@<TRIPOS>MOLECULE
*****
 24 27 0 0 0
SMALL
GASTEIGER

@<TRIPOS>ATOM
      1 C          66.1490   93.0865   12.5207 C.2     1  UNL1        0.1306
      2 C          66.6275   93.1100   13.9420 C.2     1  UNL1        0.0351
      3 C          65.9912   92.2135   14.9626 C.2     1  UNL1        0.0216
      4 C          64.8762   91.2937   14.5617 C.2     1  UNL1        0.0789
      5 N          64.0625   90.3036   15.3412 N.2     1  UNL1       -0.2439
      6 C          63.0810   89.6683   14.4015 C.2     1  UNL1        0.1050
      7 C          63.2881   90.2657   13.0413 C.2     1  UNL1        0.0934
      8 C          64.3977   91.2702   13.1403 C.2     1  UNL1        0.0206
      9 C          65.0340   92.1667   12.1198 C.3     1  UNL1        0.1373
     10 BR         64.5555   92.1432   10.6984 Br      1  UNL1       -0.0686
     11 C          66.2754   95.3804   11.3073 C.3     1  UNL1        0.2520
     12 O          66.7853   93.9830   11.5001 O.2     1  UNL1       -0.4745
     13 C          62.5205   89.9193   11.8000 C.2     1  UNL1        0.3425
     14 O          61.3357   90.7456   11.3959 O.2     1  UNL1       -0.2448
     15 O          62.9377   88.7466   10.9629 O.3     1  UNL1       -0.4454
     16 C          62.1572   87.4671   11.0227 C.3     1  UNL1        0.2087
     17 C          61.4263   86.9769    9.8080 C.3     1  UNL1        0.0445
     18 C          60.0240   87.4372    9.5400 C.3     1  UNL1        0.0210
     19 C          59.2930   86.9471    8.3253 C.3     1  UNL1        0.0722
     20 N          59.9643   85.9966    7.3786 N.3     1  UNL1       -0.2727
     21 C          61.3665   85.5364    7.6466 C.3     1  UNL1        0.0722
     22 C          62.0975   86.0265    8.8613 C.3     1  UNL1        0.0210
     23 C          60.4051   86.2378    8.0310 C.3     1  UNL1        0.0722
     24 C          61.0660   86.6810    9.1293 C.3     1  UNL1        0.0210
@<TRIPOS>BOND
     1    11    12    1
     2    12     1    1
     3     1     2    2
     4     2     3    1
     5     3     4    2
     6     4     5    1
     7     5     6    2
     8     6     7    1
     9     7    13    1
    10    13    14    2
    11    13    15    1
    12    15    16    1
    13    16    17    1
    14    17    18    1
    15    18    19    1
    16    19    20    1
    17    20    21    1
    18    21    22    1
    19    20    23    1
    20    23    24    1
    21     7     8    2
    22     8     9    1
    23     9    10    1
    24     9     1    1
    25     8     4    1
    26    22    17    1
    27    24    17    1
@<TRIPOS>MOLECULE
*****
 24 27 0 0 0
SMALL
GASTEIGER

@<TRIPOS>ATOM
      1 C          65.7369   91.7396   13.9726 C.2     1  UNL1        0.1306
      2 C          66.2402   92.8221   13.0645 C.2     1  UNL1        0.0351
      3 C          65.6482   92.9889   11.6963 C.2     1  UNL1        0.0216
      4 C          64.5529   92.0731   11.2364 C.2     1  UNL1        0.0789
      5 N          63.7819   91.9963    9.9520 N.2     1  UNL1       -0.2439
      6 C          62.8021   90.8664   10.0664 C.2     1  UNL1        0.1050
      7 C          62.9675   90.2447   11.4215 C.2     1  UNL1        0.0934
      8 C          64.0495   90.9906   12.1446 C.2     1  UNL1        0.0206
      9 C          64.6416   90.8238   13.5127 C.3     1  UNL1        0.1373
     10 BR         64.1383   89.7413   14.4209 Br      1  UNL1       -0.0686
     11 C          66.9626   92.7438   16.0316 C.3     1  UNL1        0.2520
     12 O          66.3290   91.5728   15.3408 O.2     1  UNL1       -0.4745
     13 C          62.1877   89.0816   11.9591 C.2     1  UNL1        0.3425
     14 O          60.8194   89.2976   12.5344 O.2     1  UNL1       -0.2448
     15 O          62.7763   87.7023   11.9213 O.3     1  UNL1       -0.4454
     16 C          61.9255   86.5347   11.5179 C.3     1  UNL1        0.2087
     17 C          61.7358   86.2112   10.0656 C.3     1  UNL1        0.0445
     18 C          62.8069   85.4769    9.3147 C.3     1  UNL1        0.0210
     19 C          62.6174   85.1533    7.8624 C.3     1  UNL1        0.0722
     20 N          61.3566   85.5639    7.1608 N.3     1  UNL1       -0.2727
     21 C          60.2856   86.2981    7.9116 C.3     1  UNL1        0.0722
     22 C          60.4752   86.6217    9.3640 C.3     1  UNL1        0.0210
     23 C          61.4152   85.7635    7.9575 C.3     1  UNL1        0.0722
     24 C          61.5867   86.0561    9.2708 C.3     1  UNL1        0.0210
@<TRIPOS>BOND
     1    11    12    1
     2    12     1    1
     3     1     2    2
     4     2     3    1
     5     3     4    2
     6     4     5    1
     7     5     6    2
     8     6     7    1
     9     7    13    1
    10    13    14    2
    11    13    15    1
    12    15    16    1
    13    16    17    1
    14    17    18    1
    15    18    19    1
    16    19    20    1
    17    20    21    1
    18    21    22    1
    19    20    23    1
    20    23    24    1
    21     7     8    2
    22     8     9    1
    23     9    10    1
    24     9     1    1
    25     8     4    1
    26    22    17    1
    27    24    17    1
@<TRIPOS>MOLECULE
*****
 24 27 0 0 0
SMALL
GASTEIGER

@<TRIPOS>ATOM
      1 C          65.7716   91.7404   13.9341 C.2     1  UNL1        0.1306
      2 C          66.2671   92.8225   13.0213 C.2     1  UNL1        0.0351
      3 C          65.6535   92.9979   11.6637 C.2     1  UNL1        0.0216
      4 C          64.5444   92.0910   11.2192 C.2     1  UNL1        0.0789
      5 N          63.7517   92.0238    9.9476 N.2     1  UNL1       -0.2439
      6 C          62.7662   90.9001   10.0746 C.2     1  UNL1        0.1050
      7 C          62.9500   90.2728   11.4247 C.2     1  UNL1        0.0934
      8 C          64.0490   91.0089   12.1321 C.2     1  UNL1        0.0206
      9 C          64.6626   90.8335   13.4896 C.3     1  UNL1        0.1373
     10 BR         64.1671   89.7514   14.4025 Br      1  UNL1       -0.0686
     11 C          66.8363   92.7643   16.0714 C.3     1  UNL1        0.2520
     12 O          66.3852   91.5650   15.2917 O.2     1  UNL1       -0.4745
     13 C          62.1714   89.1131   11.9714 C.2     1  UNL1        0.3425
     14 O          60.8056   89.3333   12.5511 O.2     1  UNL1       -0.2448
     15 O          62.7586   87.7332   11.9384 O.3     1  UNL1       -0.4454
     16 C          61.9717   86.5971   11.3555 C.3     1  UNL1        0.2087
     17 C          62.5720   85.2240   11.2913 C.3     1  UNL1        0.0445
     18 C          62.5615   84.3434   12.5057 C.3     1  UNL1        0.0210
     19 C          63.1619   82.9702   12.4415 C.3     1  UNL1        0.0722
     20 N          63.7727   82.4776   11.1631 N.3     1  UNL1       -0.2727
     21 C          63.7831   83.3582    9.9488 C.3     1  UNL1        0.0722
     22 C          63.1828   84.7314   10.0129 C.3     1  UNL1        0.0210
     23 C          63.4558   83.2376   11.1498 C.3     1  UNL1        0.0722
     24 C          62.9130   84.4791   11.2078 C.3     1  UNL1        0.0210
@<TRIPOS>BOND
     1    11    12    1
     2    12     1    1
     3     1     2    2
     4     2     3    1
     5     3     4    2
     6     4     5    1
     7     5     6    2
     8     6     7    1
     9     7    13    1
    10    13    14    2
    11    13    15    1
    12    15    16    1
    13    16    17    1
    14    17    18    1
    15    18    19    1
    16    19    20    1
    17    20    21    1
    18    21    22    1
    19    20    23    1
    20    23    24    1
    21     7     8    2
    22     8     9    1
    23     9    10    1
    24     9     1    1
    25     8     4    1
    26    22    17    1
    27    24    17    1
@<TRIPOS>MOLECULE
*****
 24 27 0 0 0
SMALL
GASTEIGER

@<TRIPOS>ATOM
      1 C          62.0425   87.7426   10.3095 C.2     1  UNL1        0.1306
      2 C          62.1065   89.2328   10.1513 C.2     1  UNL1        0.0351
      3 C          62.7471   90.0732   11.2160 C.2     1  UNL1        0.0216
      4 C          63.3235   89.4233   12.4388 C.2     1  UNL1        0.0789
      5 N          64.0116   89.9884   13.6460 N.2     1  UNL1       -0.2439
      6 C          64.3728   88.8474   14.5502 C.2     1  UNL1        0.1050
      7 C          63.9079   87.5771   13.9019 C.2     1  UNL1        0.0934
      8 C          63.2595   87.9330   12.5970 C.2     1  UNL1        0.0206
      9 C          62.6189   87.0927   11.5323 C.3     1  UNL1        0.1373
     10 BR         62.5549   85.6024   11.6904 Br      1  UNL1       -0.0686
     11 C          59.9646   87.1243    8.8776 C.3     1  UNL1        0.2520
     12 O          61.4019   86.9021    9.2448 O.2     1  UNL1       -0.4745
     13 C          64.0642   86.1937   14.4604 C.2     1  UNL1        0.3425
     14 O          65.4311   85.5935   14.6055 O.2     1  UNL1       -0.2448
     15 O          62.8534   85.4107   14.8739 O.3     1  UNL1       -0.4454
     16 C          63.0048   84.0059   15.3773 C.3     1  UNL1        0.2087
     17 C          62.9239   82.8535   14.4205 C.3     1  UNL1        0.0445
     18 C          61.7719   81.8956   14.4959 C.3     1  UNL1        0.0210
     19 C          61.6908   80.7432   13.5392 C.3     1  UNL1        0.0722
     20 N          62.7618   80.5486   12.5070 N.3     1  UNL1       -0.2727
     21 C          63.9137   81.5064   12.4316 C.3     1  UNL1        0.0722
     22 C          63.9947   82.6588   13.3883 C.3     1  UNL1        0.0210
     23 C          62.8494   81.1949   13.0097 C.3     1  UNL1        0.0722
     24 C          62.9226   82.2369   13.8748 C.3     1  UNL1        0.0210
@<TRIPOS>BOND
     1    11    12    1
     2    12     1    1
     3     1     2    2
     4     2     3    1
     5     3     4    2
     6     4     5    1
     7     5     6    2
     8     6     7    1
     9     7    13    1
    10    13    14    2
    11    13    15    1
    12    15    16    1
    13    16    17    1
    14    17    18    1
    15    18    19    1
    16    19    20    1
    17    20    21    1
    18    21    22    1
    19    20    23    1
    20    23    24    1
    21     7     8    2
    22     8     9    1
    23     9    10    1
    24     9     1    1
    25     8     4    1
    26    22    17    1
    27    24    17    1
@<TRIPOS>MOLECULE
*****
 24 27 0 0 0
SMALL
GASTEIGER

@<TRIPOS>ATOM
      1 C          61.5820   88.0537   10.0598 C.2     1  UNL1        0.1306
      2 C          61.6438   86.5867   10.3662 C.2     1  UNL1        0.0351
      3 C          62.3865   86.1040   11.5769 C.2     1  UNL1        0.0216
      4 C          63.0672   87.0884   12.4810 C.2     1  UNL1        0.0789
      5 N          63.8679   86.9105   13.7369 N.2     1  UNL1       -0.2439
      6 C          64.3009   88.2676   14.2066 C.2     1  UNL1        0.1050
      7 C          63.7678   89.2843   13.2411 C.2     1  UNL1        0.0934
      8 C          63.0054   88.5554   12.1746 C.2     1  UNL1        0.0206
      9 C          62.2627   89.0381   10.9640 C.3     1  UNL1        0.1373
     10 BR         62.2008   90.5051   10.6575 Br      1  UNL1       -0.0686
     11 C          59.7643   87.6858    8.2403 C.3     1  UNL1        0.2520
     12 O          60.8393   88.5364    8.8492 O.2     1  UNL1       -0.4745
     13 C          63.9629   90.7690   13.3270 C.2     1  UNL1        0.3425
     14 O          63.5432   91.5104   14.5615 O.2     1  UNL1       -0.2448
     15 O          64.5778   91.5124   12.1783 O.3     1  UNL1       -0.4454
     16 C          65.6366   92.5438   12.4332 C.3     1  UNL1        0.2087
     17 C          66.3805   93.1552   11.2830 C.3     1  UNL1        0.0445
     18 C          66.1874   94.6052   10.9509 C.3     1  UNL1        0.0210
     19 C          66.9313   95.2166    9.8007 C.3     1  UNL1        0.0722
     20 N          67.8682   94.3780    8.9828 N.3     1  UNL1       -0.2727
     21 C          68.0613   92.9281    9.3149 C.3     1  UNL1        0.0722
     22 C          67.3174   92.3167   10.4651 C.3     1  UNL1        0.0210
     23 C          67.4826   93.9986    9.6035 C.3     1  UNL1        0.0722
     24 C          66.8100   93.4458   10.6435 C.3     1  UNL1        0.0210
@<TRIPOS>BOND
     1    11    12    1
     2    12     1    1
     3     1     2    2
     4     2     3    1
     5     3     4    2
     6     4     5    1
     7     5     6    2
     8     6     7    1
     9     7    13    1
    10    13    14    2
    11    13    15    1
    12    15    16    1
    13    16    17    1
    14    17    18    1
    15    18    19    1
    16    19    20    1
    17    20    21    1
    18    21    22    1
    19    20    23    1
    20    23    24    1
    21     7     8    2
    22     8     9    1
    23     9    10    1
    24     9     1    1
    25     8     4    1
    26    22    17    1
    27    24    17    1
@<TRIPOS>MOLECULE
*****
 24 27 0 0 0
SMALL
GASTEIGER

@<TRIPOS>ATOM
      1 C          66.4904   93.1292   13.2836 C.2     1  UNL1        0.1306
      2 C          66.4417   93.8735   11.9823 C.2     1  UNL1        0.0351
      3 C          65.4841   93.4467   10.9094 C.2     1  UNL1        0.0216
      4 C          64.5752   92.2755   11.1381 C.2     1  UNL1        0.0789
      5 N          63.5353   91.6281   10.2724 N.2     1  UNL1       -0.2439
      6 C          62.9413   90.4837   11.0388 C.2     1  UNL1        0.1050
      7 C          63.6141   90.4238   12.3781 C.2     1  UNL1        0.0934
      8 C          64.6240   91.5312   12.4395 C.2     1  UNL1        0.0206
      9 C          65.5815   91.9581   13.5122 C.3     1  UNL1        0.1373
     10 BR         65.6302   91.2138   14.8136 Br      1  UNL1       -0.0686
     11 C          68.6344   92.6997   14.6867 C.3     1  UNL1        0.2520
     12 O          67.4480   93.5561   14.3564 O.2     1  UNL1       -0.4745
     13 C          63.3274   89.4307   13.4652 C.2     1  UNL1        0.3425
     14 O          62.4776   89.8255   14.6365 O.2     1  UNL1       -0.2448
     15 O          63.8905   88.0430   13.3809 O.3     1  UNL1       -0.4454
     16 C          64.3569   87.3462   14.6246 C.3     1  UNL1        0.2087
     17 C          64.0550   85.8908   14.8270 C.3     1  UNL1        0.0445
     18 C          64.7435   84.8580   13.9847 C.3     1  UNL1        0.0210
     19 C          64.4417   83.4026   14.1870 C.3     1  UNL1        0.0722
     20 N          63.4515   82.9801   15.2316 N.3     1  UNL1       -0.2727
     21 C          62.7631   84.0130   16.0738 C.3     1  UNL1        0.0722
     22 C          63.0649   85.4683   15.8715 C.3     1  UNL1        0.0210
     23 C          63.5842   83.7894   15.1574 C.3     1  UNL1        0.0722
     24 C          63.8571   85.1053   14.9744 C.3     1  UNL1        0.0210
@<TRIPOS>BOND
     1    11    12    1
     2    12     1    1
     3     1     2    2
     4     2     3    1
     5     3     4    2
     6     4     5    1
     7     5     6    2
     8     6     7    1
     9     7    13    1
    10    13    14    2
    11    13    15    1
    12    15    16    1
    13    16    17    1
    14    17    18    1
    15    18    19    1
    16    19    20    1
    17    20    21    1
    18    21    22    1
    19    20    23    1
    20    23    24    1
    21     7     8    2
    22     8     9    1
    23     9    10    1
    24     9     1    1
    25     8     4    1
    26    22    17    1
    27    24    17    1
@<TRIPOS>MOLECULE
*****
 24 27 0 0 0
SMALL
GASTEIGER

@<TRIPOS>ATOM
      1 C          63.1245   86.4269   12.8374 C.2     1  UNL1        0.1306
      2 C          62.3847   86.0892   11.5771 C.2     1  UNL1        0.0351
      3 C          62.0385   87.1714   10.5977 C.2     1  UNL1        0.0216
      4 C          62.4323   88.5912   10.8788 C.2     1  UNL1        0.0789
      5 N          62.2299   89.8607   10.1058 N.2     1  UNL1       -0.2439
      6 C          62.8447   90.9829   10.8885 C.2     1  UNL1        0.1050
      7 C          63.4271   90.4070   12.1452 C.2     1  UNL1        0.0934
      8 C          63.1722   88.9288   12.1391 C.2     1  UNL1        0.0206
      9 C          63.5183   87.8467   13.1185 C.3     1  UNL1        0.1373
     10 BR         64.2582   88.1843   14.3789 Br      1  UNL1       -0.0686
     11 C          64.4408   84.2673   13.4322 C.3     1  UNL1        0.2520
     12 O          63.4707   85.3447   13.8169 O.2     1  UNL1       -0.4745
     13 C          64.1393   91.1746   13.2192 C.2     1  UNL1        0.3425
     14 O          63.4835   91.3837   14.5520 O.2     1  UNL1       -0.2448
     15 O          65.5072   91.7330   12.9606 O.3     1  UNL1       -0.4454
     16 C          65.6585   93.0653   12.2882 C.3     1  UNL1        0.2087
     17 C          66.5263   93.1974   11.0719 C.3     1  UNL1        0.0445
     18 C          67.5460   92.1423   10.7600 C.3     1  UNL1        0.0210
     19 C          68.4139   92.2743    9.5437 C.3     1  UNL1        0.0722
     20 N          68.2621   93.4613    8.6393 N.3     1  UNL1       -0.2727
     21 C          67.2425   94.5164    8.9512 C.3     1  UNL1        0.0722
     22 C          66.3746   94.3844   10.1675 C.3     1  UNL1        0.0210
     23 C          67.7638   93.4326    9.2942 C.3     1  UNL1        0.0722
     24 C          66.9791   93.3132   10.3940 C.3     1  UNL1        0.0210
@<TRIPOS>BOND
     1    11    12    1
     2    12     1    1
     3     1     2    2
     4     2     3    1
     5     3     4    2
     6     4     5    1
     7     5     6    2
     8     6     7    1
     9     7    13    1
    10    13    14    2
    11    13    15    1
    12    15    16    1
    13    16    17    1
    14    17    18    1
    15    18    19    1
    16    19    20    1
    17    20    21    1
    18    21    22    1
    19    20    23    1
    20    23    24    1
    21     7     8    2
    22     8     9    1
    23     9    10    1
    24     9     1    1
    25     8     4    1
    26    22    17    1
    27    24    17    1
@<TRIPOS>MOLECULE
*****
 24 27 0 0 0
SMALL
GASTEIGER

@<TRIPOS>ATOM
      1 C          61.9346   86.4178    9.3132 C.2     1  UNL1        0.1306
      2 C          62.3957   85.6068    8.1388 C.2     1  UNL1        0.0351
      3 C          63.2050   84.3628    8.3576 C.2     1  UNL1        0.0216
      4 C          63.5530   83.9300    9.7509 C.2     1  UNL1        0.0789
      5 N          64.3310   82.7586   10.2732 N.2     1  UNL1       -0.2439
      6 C          64.3506   82.8458   11.7705 C.2     1  UNL1        0.1050
      7 C          63.5848   84.0710   12.1737 C.2     1  UNL1        0.0934
      8 C          63.0919   84.7410   10.9255 C.2     1  UNL1        0.0206
      9 C          62.2827   85.9849   10.7066 C.3     1  UNL1        0.1373
     10 BR         61.8216   86.7960   11.8812 Br      1  UNL1       -0.0686
     11 C          59.7570   87.5690    8.4871 C.3     1  UNL1        0.2520
     12 O          61.1254   87.6617    9.0945 O.2     1  UNL1       -0.4745
     13 C          63.3528   84.5431   13.5784 C.2     1  UNL1        0.3425
     14 O          61.9842   84.4481   14.1850 O.2     1  UNL1       -0.2448
     15 O          64.4892   85.1103   14.3764 O.3     1  UNL1       -0.4454
     16 C          64.2117   85.8863   15.6296 C.3     1  UNL1        0.2087
     17 C          63.9473   87.3609   15.5557 C.3     1  UNL1        0.0445
     18 C          63.2158   88.0484   16.6704 C.3     1  UNL1        0.0210
     19 C          62.9512   89.5231   16.5966 C.3     1  UNL1        0.0722
     20 N          63.4182   90.3103   15.4081 N.3     1  UNL1       -0.2727
     21 C          64.1497   89.6228   14.2935 C.3     1  UNL1        0.0722
     22 C          64.4142   88.1481   14.3673 C.3     1  UNL1        0.0210
     23 C          63.5864   89.5042   15.4038 C.3     1  UNL1        0.0722
     24 C          63.8256   88.1708   15.4706 C.3     1  UNL1        0.0210
@<TRIPOS>BOND
     1    11    12    1
     2    12     1    1
     3     1     2    2
     4     2     3    1
     5     3     4    2
     6     4     5    1
     7     5     6    2
     8     6     7    1
     9     7    13    1
    10    13    14    2
    11    13    15    1
    12    15    16    1
    13    16    17    1
    14    17    18    1
    15    18    19    1
    16    19    20    1
    17    20    21    1
    18    21    22    1
    19    20    23    1
    20    23    24    1
    21     7     8    2
    22     8     9    1
    23     9    10    1
    24     9     1    1
    25     8     4    1
    26    22    17    1
    27    24    17    1
@<TRIPOS>MOLECULE
*****
 24 27 0 0 0
SMALL
GASTEIGER

@<TRIPOS>ATOM
      1 C          63.1067   84.6753   10.1544 C.2     1  UNL1        0.1306
      2 C          63.6054   83.3757    9.5957 C.2     1  UNL1        0.0351
      3 C          63.9573   82.2477   10.5199 C.2     1  UNL1        0.0216
      4 C          63.8106   82.4195   12.0027 C.2     1  UNL1        0.0789
      5 N          64.0774   81.4929   13.1517 N.2     1  UNL1       -0.2439
      6 C          63.7436   82.2200   14.4206 C.2     1  UNL1        0.1050
      7 C          63.2705   83.5959   14.0558 C.2     1  UNL1        0.0934
      8 C          63.3119   83.7192   12.5615 C.2     1  UNL1        0.0206
      9 C          62.9600   84.8471   11.6373 C.3     1  UNL1        0.1373
     10 BR         62.4613   86.1468   12.1960 Br      1  UNL1       -0.0686
     11 C          61.3449   85.9615    8.7432 C.3     1  UNL1        0.2520
     12 O          62.7547   85.8032    9.2303 O.2     1  UNL1       -0.4745
     13 C          62.8328   84.6613   15.0167 C.2     1  UNL1        0.3425
     14 O          61.3751   84.8473   15.3172 O.2     1  UNL1       -0.2448
     15 O          63.8529   85.5408   15.6770 O.3     1  UNL1       -0.4454
     16 C          64.5489   86.6074   14.8848 C.3     1  UNL1        0.2087
     17 C          64.1489   88.0439   15.0474 C.3     1  UNL1        0.0445
     18 C          64.3255   89.0051   13.9093 C.3     1  UNL1        0.0210
     19 C          63.9255   90.4416   14.0718 C.3     1  UNL1        0.0722
     20 N          63.3488   90.9170   15.3724 N.3     1  UNL1       -0.2727
     21 C          63.1721   89.9559   16.5104 C.3     1  UNL1        0.0722
     22 C          63.5722   88.5194   16.3479 C.3     1  UNL1        0.0210
     23 C          63.5533   90.1205   15.3308 C.3     1  UNL1        0.0722
     24 C          63.9151   88.8216   15.1837 C.3     1  UNL1        0.0210
@<TRIPOS>BOND
     1    11    12    1
     2    12     1    1
     3     1     2    2
     4     2     3    1
     5     3     4    2
     6     4     5    1
     7     5     6    2
     8     6     7    1
     9     7    13    1
    10    13    14    2
    11    13    15    1
    12    15    16    1
    13    16    17    1
    14    17    18    1
    15    18    19    1
    16    19    20    1
    17    20    21    1
    18    21    22    1
    19    20    23    1
    20    23    24    1
    21     7     8    2
    22     8     9    1
    23     9    10    1
    24     9     1    1
    25     8     4    1
    26    22    17    1
    27    24    17    1
