@<TRIPOS>MOLECULE
*****
 17 18 0 0 0
SMALL
GASTEIGER

@<TRIPOS>ATOM
      1 C          63.6680   83.7580   10.7616 C.ar    1  UNL1        0.1386
      2 C          63.7516   84.1020    9.3040 C.ar    1  UNL1        0.0384
      3 C          62.8660   85.1698    8.7334 C.ar    1  UNL1        0.0207
      4 C          61.8969   85.8936    9.6203 C.ar    1  UNL1        0.0654
      5 C          61.8133   85.5496   11.0779 C.ar    1  UNL1        0.0207
      6 C          62.6988   84.4818   11.6485 C.ar    1  UNL1        0.0384
      7 N          61.0113   86.9614    9.0497 N.ar    1  UNL1       -0.2915
      8 C          59.8749   86.7470    8.0944 C.ar    1  UNL1        0.1825
      9 N          59.2680   88.0842    7.7885 N.ar    1  UNL1       -0.2224
     10 C          60.0293   89.1250    8.5547 C.ar    1  UNL1        0.1137
     11 C          61.1067   88.4311    9.3342 C.ar    1  UNL1        0.0623
     12 C          62.1044   89.0910   10.2392 C.3     1  UNL1        0.0521
     13 O          64.5535   82.6902   11.3322 O.3     1  UNL1       -0.4755
     14 C          64.0693   81.8443   12.4723 C.3     1  UNL1        0.2054
     15 C          62.9616   80.8563   12.2555 C.3     1  UNL1        0.0473
     16 C          61.1851   81.1102   14.1343 C.3     1  UNL1        0.0001
     17 C          62.2234   80.2873   13.4309 C.3     1  UNL1        0.0038
@<TRIPOS>BOND
     1    16    17    1
     2    17    15    1
     3    15    14    1
     4    14    13    1
     5    13     1    1
     6     1     2   ar
     7     2     3   ar
     8     3     4   ar
     9     4     7    1
    10     7     8   ar
    11     8     9   ar
    12     9    10   ar
    13    10    11   ar
    14    11    12    1
    15     4     5   ar
    16     5     6   ar
    17     6     1   ar
    18    11     7   ar
@<TRIPOS>MOLECULE
*****
 17 18 0 0 0
SMALL
GASTEIGER

@<TRIPOS>ATOM
      1 C          63.5800   83.6283   10.7974 C.ar    1  UNL1        0.1386
      2 C          63.6739   84.0756    9.3687 C.ar    1  UNL1        0.0384
      3 C          62.9403   85.3037    8.9176 C.ar    1  UNL1        0.0207
      4 C          62.1129   86.0846    9.8951 C.ar    1  UNL1        0.0654
      5 C          62.0191   85.6373   11.3238 C.ar    1  UNL1        0.0207
      6 C          62.7526   84.4091   11.7749 C.ar    1  UNL1        0.0384
      7 N          61.3793   87.3128    9.4440 N.ar    1  UNL1       -0.2915
      8 C          61.6251   88.7126    9.9237 C.ar    1  UNL1        0.1825
      9 N          60.6689   89.6217    9.2102 N.ar    1  UNL1       -0.2224
     10 C          59.8321   88.7838    8.2895 C.ar    1  UNL1        0.1137
     11 C          60.2712   87.3568    8.4341 C.ar    1  UNL1        0.0623
     12 C          59.7020   86.1803    7.6978 C.3     1  UNL1        0.0521
     13 O          64.3136   82.4001   11.2485 O.3     1  UNL1       -0.4755
     14 C          64.0963   81.8624   12.6318 C.3     1  UNL1        0.2054
     15 C          62.9012   81.0043   12.9237 C.3     1  UNL1        0.0473
     16 C          60.6192   80.6704   14.1201 C.3     1  UNL1        0.0001
     17 C          61.8887   81.4483   13.9376 C.3     1  UNL1        0.0038
@<TRIPOS>BOND
     1    16    17    1
     2    17    15    1
     3    15    14    1
     4    14    13    1
     5    13     1    1
     6     1     2   ar
     7     2     3   ar
     8     3     4   ar
     9     4     7    1
    10     7     8   ar
    11     8     9   ar
    12     9    10   ar
    13    10    11   ar
    14    11    12    1
    15     4     5   ar
    16     5     6   ar
    17     6     1   ar
    18    11     7   ar
@<TRIPOS>MOLECULE
*****
 17 18 0 0 0
SMALL
GASTEIGER

@<TRIPOS>ATOM
      1 C          63.8400   90.7063   12.9352 C.ar    1  UNL1        0.1386
      2 C          63.4978   90.9422   11.4940 C.ar    1  UNL1        0.0384
      3 C          64.2879   91.9296   10.6873 C.ar    1  UNL1        0.0207
      4 C          65.4204   92.6811   11.3218 C.ar    1  UNL1        0.0654
      5 C          65.7627   92.4453   12.7631 C.ar    1  UNL1        0.0207
      6 C          64.9725   91.4579   13.5697 C.ar    1  UNL1        0.0384
      7 N          66.2105   93.6685   10.5151 N.ar    1  UNL1       -0.2915
      8 C          65.8878   95.1228   10.3396 C.ar    1  UNL1        0.1825
      9 N          66.9400   95.7280    9.4583 N.ar    1  UNL1       -0.2224
     10 C          67.9130   94.6478    9.0892 C.ar    1  UNL1        0.1137
     11 C          67.4622   93.3749    9.7424 C.ar    1  UNL1        0.0623
     12 C          68.1434   92.0424    9.6405 C.3     1  UNL1        0.0521
     13 O          63.0499   89.7190   13.7419 O.3     1  UNL1       -0.4755
     14 C          63.2052   89.6736   15.2331 C.3     1  UNL1        0.2054
     15 C          63.5686   88.3855   15.9104 C.3     1  UNL1        0.0473
     16 C          62.6368   86.6246   17.5782 C.3     1  UNL1        0.0001
     17 C          62.9763   88.0476   17.2465 C.3     1  UNL1        0.0038
@<TRIPOS>BOND
     1    16    17    1
     2    17    15    1
     3    15    14    1
     4    14    13    1
     5    13     1    1
     6     1     2   ar
     7     2     3   ar
     8     3     4   ar
     9     4     7    1
    10     7     8   ar
    11     8     9   ar
    12     9    10   ar
    13    10    11   ar
    14    11    12    1
    15     4     5   ar
    16     5     6   ar
    17     6     1   ar
    18    11     7   ar
@<TRIPOS>MOLECULE
*****
 17 18 0 0 0
SMALL
GASTEIGER

@<TRIPOS>ATOM
      1 C          62.9633   89.6268   12.4031 C.ar    1  UNL1        0.1386
      2 C          63.4110   90.9412   11.8357 C.ar    1  UNL1        0.0384
      3 C          64.5434   91.6878   12.4761 C.ar    1  UNL1        0.0207
      4 C          65.2282   91.1201   13.6839 C.ar    1  UNL1        0.0654
      5 C          64.7805   89.8057   14.2512 C.ar    1  UNL1        0.0207
      6 C          63.6481   89.0591   13.6108 C.ar    1  UNL1        0.0384
      7 N          66.3607   91.8667   14.3243 N.ar    1  UNL1       -0.2915
      8 C          67.7085   92.1163   13.7150 C.ar    1  UNL1        0.1825
      9 N          68.5250   92.8987   14.7006 N.ar    1  UNL1       -0.2224
     10 C          67.6818   93.1326   15.9189 C.ar    1  UNL1        0.1137
     11 C          66.3442   92.4948   15.6863 C.ar    1  UNL1        0.0623
     12 C          65.1923   92.4866   16.6471 C.3     1  UNL1        0.0521
     13 O          61.8308   88.8802   11.7627 O.3     1  UNL1       -0.4755
     14 C          62.0056   88.2766   10.4007 C.3     1  UNL1        0.2054
     15 C          62.0791   86.7866   10.2445 C.3     1  UNL1        0.0473
     16 C          62.9765   85.3098    8.3044 C.3     1  UNL1        0.0001
     17 C          61.8928   86.1641    8.8925 C.3     1  UNL1        0.0038
@<TRIPOS>BOND
     1    16    17    1
     2    17    15    1
     3    15    14    1
     4    14    13    1
     5    13     1    1
     6     1     2   ar
     7     2     3   ar
     8     3     4   ar
     9     4     7    1
    10     7     8   ar
    11     8     9   ar
    12     9    10   ar
    13    10    11   ar
    14    11    12    1
    15     4     5   ar
    16     5     6   ar
    17     6     1   ar
    18    11     7   ar
@<TRIPOS>MOLECULE
*****
 17 18 0 0 0
SMALL
GASTEIGER

@<TRIPOS>ATOM
      1 C          64.7462   91.8263   12.7006 C.ar    1  UNL1        0.1386
      2 C          64.1294   90.6956   13.4693 C.ar    1  UNL1        0.0384
      3 C          63.1696   89.7633   12.7912 C.ar    1  UNL1        0.0207
      4 C          62.8266   89.9619   11.3446 C.ar    1  UNL1        0.0654
      5 C          63.4434   91.0926   10.5759 C.ar    1  UNL1        0.0207
      6 C          64.4032   92.0249   11.2540 C.ar    1  UNL1        0.0384
      7 N          61.8668   89.0296   10.6665 N.ar    1  UNL1       -0.2915
      8 C          62.2346   87.8277    9.8480 C.ar    1  UNL1        0.1825
      9 N          60.9658   87.1908    9.3635 N.ar    1  UNL1       -0.2224
     10 C          59.8139   87.9992    9.8827 C.ar    1  UNL1        0.1137
     11 C          60.3707   89.1356   10.6880 C.ar    1  UNL1        0.0623
     12 C          59.5717   90.1925   11.3913 C.3     1  UNL1        0.0521
     13 O          65.7060   92.7586   13.3787 O.3     1  UNL1       -0.4755
     14 C          67.1211   92.3278   13.6270 C.3     1  UNL1        0.2054
     15 C          67.4761   91.6155   14.8985 C.3     1  UNL1        0.0473
     16 C          68.6955   93.6940   15.8697 C.3     1  UNL1        0.0001
     17 C          67.9783   92.3932   16.0788 C.3     1  UNL1        0.0038
@<TRIPOS>BOND
     1    16    17    1
     2    17    15    1
     3    15    14    1
     4    14    13    1
     5    13     1    1
     6     1     2   ar
     7     2     3   ar
     8     3     4   ar
     9     4     7    1
    10     7     8   ar
    11     8     9   ar
    12     9    10   ar
    13    10    11   ar
    14    11    12    1
    15     4     5   ar
    16     5     6   ar
    17     6     1   ar
    18    11     7   ar
@<TRIPOS>MOLECULE
*****
 17 18 0 0 0
SMALL
GASTEIGER

@<TRIPOS>ATOM
      1 C          63.8443   90.9818   12.2821 C.ar    1  UNL1        0.1386
      2 C          63.6175   91.4347   10.8703 C.ar    1  UNL1        0.0384
      3 C          62.7551   90.6214    9.9511 C.ar    1  UNL1        0.0207
      4 C          62.1195   89.3552   10.4438 C.ar    1  UNL1        0.0654
      5 C          62.3464   88.9023   11.8557 C.ar    1  UNL1        0.0207
      6 C          63.2088   89.7156   12.7748 C.ar    1  UNL1        0.0384
      7 N          61.2571   88.5419    9.5247 N.ar    1  UNL1       -0.2915
      8 C          60.1387   89.0646    8.6727 C.ar    1  UNL1        0.1825
      9 N          59.5521   87.9089    7.9176 N.ar    1  UNL1       -0.2224
     10 C          60.3080   86.6719    8.3029 C.ar    1  UNL1        0.1137
     11 C          61.3618   87.0632    9.2961 C.ar    1  UNL1        0.0623
     12 C          62.3472   86.1380    9.9466 C.3     1  UNL1        0.0521
     13 O          64.7067   91.7951   13.2013 O.3     1  UNL1       -0.4755
     14 C          65.9881   92.3897   12.6968 C.3     1  UNL1        0.2054
     15 C          67.2586   92.2012   13.4716 C.3     1  UNL1        0.0473
     16 C          68.0627   92.2036   15.9421 C.3     1  UNL1        0.0001
     17 C          67.2152   91.6168   14.8524 C.3     1  UNL1        0.0038
@<TRIPOS>BOND
     1    16    17    1
     2    17    15    1
     3    15    14    1
     4    14    13    1
     5    13     1    1
     6     1     2   ar
     7     2     3   ar
     8     3     4   ar
     9     4     7    1
    10     7     8   ar
    11     8     9   ar
    12     9    10   ar
    13    10    11   ar
    14    11    12    1
    15     4     5   ar
    16     5     6   ar
    17     6     1   ar
    18    11     7   ar
@<TRIPOS>MOLECULE
*****
 17 18 0 0 0
SMALL
GASTEIGER

@<TRIPOS>ATOM
      1 C          66.1808   93.2425   12.3107 C.ar    1  UNL1        0.1386
      2 C          66.7682   92.8575   13.6361 C.ar    1  UNL1        0.0384
      3 C          66.1683   91.7304   14.4233 C.ar    1  UNL1        0.0207
      4 C          64.9810   90.9884   13.8853 C.ar    1  UNL1        0.0654
      5 C          64.3935   91.3735   12.5599 C.ar    1  UNL1        0.0207
      6 C          64.9934   92.5005   11.7726 C.ar    1  UNL1        0.0384
      7 N          64.3810   89.8613   14.6725 N.ar    1  UNL1       -0.2915
      8 C          64.3767   88.4143   14.2775 C.ar    1  UNL1        0.1825
      9 N          63.6731   87.6420   15.3539 N.ar    1  UNL1       -0.2224
     10 C          63.2426   88.6118   16.4142 C.ar    1  UNL1        0.1137
     11 C          63.6802   89.9834   15.9931 C.ar    1  UNL1        0.0623
     12 C          63.4561   91.2540   16.7582 C.3     1  UNL1        0.0521
     13 O          66.7807   94.3696   11.5234 O.3     1  UNL1       -0.4755
     14 C          66.5955   94.4274   10.0361 C.3     1  UNL1        0.2054
     15 C          67.7744   94.2486    9.1260 C.3     1  UNL1        0.0473
     16 C          68.5996   91.9249    9.9443 C.3     1  UNL1        0.0001
     17 C          68.2864   92.8714    8.8236 C.3     1  UNL1        0.0038
@<TRIPOS>BOND
     1    16    17    1
     2    17    15    1
     3    15    14    1
     4    14    13    1
     5    13     1    1
     6     1     2   ar
     7     2     3   ar
     8     3     4   ar
     9     4     7    1
    10     7     8   ar
    11     8     9   ar
    12     9    10   ar
    13    10    11   ar
    14    11    12    1
    15     4     5   ar
    16     5     6   ar
    17     6     1   ar
    18    11     7   ar
@<TRIPOS>MOLECULE
*****
 17 18 0 0 0
SMALL
GASTEIGER

@<TRIPOS>ATOM
      1 C          63.9143   87.9301   13.5730 C.ar    1  UNL1        0.1386
      2 C          63.1487   87.2758   12.4613 C.ar    1  UNL1        0.0384
      3 C          62.9198   85.7935   12.4793 C.ar    1  UNL1        0.0207
      4 C          63.4565   84.9654   13.6090 C.ar    1  UNL1        0.0654
      5 C          64.2220   85.6197   14.7207 C.ar    1  UNL1        0.0207
      6 C          64.4509   87.1020   14.7027 C.ar    1  UNL1        0.0384
      7 N          63.2276   83.4831   13.6270 N.ar    1  UNL1       -0.2915
      8 C          62.4871   82.7181   14.6837 C.ar    1  UNL1        0.1825
      9 N          62.5009   81.2677   14.3013 N.ar    1  UNL1       -0.2224
     10 C          63.2498   81.1363   13.0083 C.ar    1  UNL1        0.1137
     11 C          63.6989   82.5055   12.5916 C.ar    1  UNL1        0.0623
     12 C          64.4819   82.8386   11.3563 C.3     1  UNL1        0.0521
     13 O          64.1432   89.4124   13.5549 O.3     1  UNL1       -0.4755
     14 C          63.2016   90.3076   12.8054 C.3     1  UNL1        0.2054
     15 C          63.6708   91.0294   11.5770 C.3     1  UNL1        0.0473
     16 C          62.1033   89.7621    9.9378 C.3     1  UNL1        0.0001
     17 C          62.8357   91.0107   10.3311 C.3     1  UNL1        0.0038
@<TRIPOS>BOND
     1    16    17    1
     2    17    15    1
     3    15    14    1
     4    14    13    1
     5    13     1    1
     6     1     2   ar
     7     2     3   ar
     8     3     4   ar
     9     4     7    1
    10     7     8   ar
    11     8     9   ar
    12     9    10   ar
    13    10    11   ar
    14    11    12    1
    15     4     5   ar
    16     5     6   ar
    17     6     1   ar
    18    11     7   ar
@<TRIPOS>MOLECULE
*****
 17 18 0 0 0
SMALL
GASTEIGER

@<TRIPOS>ATOM
      1 C          63.0939   87.9201   12.2833 C.ar    1  UNL1        0.1386
      2 C          63.8303   87.4228   13.4918 C.ar    1  UNL1        0.0384
      3 C          63.8226   85.9605   13.8256 C.ar    1  UNL1        0.0207
      4 C          63.0786   84.9954   12.9510 C.ar    1  UNL1        0.0654
      5 C          62.3422   85.4927   11.7426 C.ar    1  UNL1        0.0207
      6 C          62.3498   86.9551   11.4087 C.ar    1  UNL1        0.0384
      7 N          63.0709   83.5330   13.2849 N.ar    1  UNL1       -0.2915
      8 C          62.4471   82.9088   14.4978 C.ar    1  UNL1        0.1825
      9 N          62.6763   81.4281   14.4270 N.ar    1  UNL1       -0.2224
     10 C          63.4418   81.1372   13.1702 C.ar    1  UNL1        0.1137
     11 C          63.6857   82.4381   12.4644 C.ar    1  UNL1        0.0623
     12 C          64.4161   82.6133   11.1660 C.3     1  UNL1        0.0521
     13 O          63.1016   89.3825   11.9495 O.3     1  UNL1       -0.4755
     14 C          63.1908   90.4017   13.0464 C.3     1  UNL1        0.2054
     15 C          64.4738   91.1433   13.2786 C.3     1  UNL1        0.0473
     16 C          66.6430   91.5071   14.6614 C.3     1  UNL1        0.0001
     17 C          65.3809   90.7389   14.4027 C.3     1  UNL1        0.0038
@<TRIPOS>BOND
     1    16    17    1
     2    17    15    1
     3    15    14    1
     4    14    13    1
     5    13     1    1
     6     1     2   ar
     7     2     3   ar
     8     3     4   ar
     9     4     7    1
    10     7     8   ar
    11     8     9   ar
    12     9    10   ar
    13    10    11   ar
    14    11    12    1
    15     4     5   ar
    16     5     6   ar
    17     6     1   ar
    18    11     7   ar
