@<TRIPOS>MOLECULE
*****
 39 42 0 0 0
SMALL
GASTEIGER

@<TRIPOS>ATOM
      1 C          62.6621   88.6933   11.4788 C.3     1  UNL1        0.0468
      2 C          61.8075   89.9086    9.9961 C.3     1  UNL1        0.0069
      3 C          63.1884   88.7976   12.2800 C.3     1  UNL1        0.0500
      4 C          63.5603   88.1953   12.9349 C.3     1  UNL1        0.1694
      5 C          63.9127   87.0436   13.6317 C.3     1  UNL1        0.0435
      6 C          64.6688   86.6244   14.8575 C.3     1  UNL1        0.0040
      7 C          63.4658   87.0620   12.9375 C.3     1  UNL1        0.0038
      8 C          64.0114   89.5513   13.4553 C.3     1  UNL1        0.0001
      9 C          63.0026   87.0908   12.2164 C.3     1  UNL1        0.0001
     10 C          62.7660   86.4415   11.9355 C.3     1  UNL1        0.0005
     11 C          62.5145   85.7147   11.6415 C.3     1  UNL1        0.0093
     12 C          62.2608   84.2499   11.4411 C.3     1  UNL1        0.0082
     13 C          62.9228   83.5071   12.5635 C.3     1  UNL1        0.0645
     14 C          63.5856   84.5127   13.4577 C.2     1  UNL1        0.1504
     15 O          64.3640   84.2075   14.7030 O.2     1  UNL1       -0.2961
     16 C          63.3332   85.8771   12.8878 C.3     1  UNL1        0.0610
     17 C          62.2892   86.9873   11.1255 C.3     1  UNL1        0.0276
     18 C          61.1794   85.9323    9.5457 C.3     1  UNL1        0.0025
     19 C          62.2896   87.9434   11.0006 C.3     1  UNL1        0.1141
     20 O          61.1806   88.5582    9.2028 O.3     1  UNL1       -0.3841
     21 H          61.2090   89.5242    9.1199 H       1  UNL1        0.2103
     22 C          63.7674   91.7067   10.7415 C.2     1  UNL1       -0.0048
     23 C          62.7288   90.7842   11.3075 C.2     1  UNL1       -0.0243
     24 O          64.6700   89.2502   14.5146 O.3     1  UNL1       -0.4517
     25 C          64.8122   90.7425   14.4628 C.2     1  UNL1        0.3280
     26 O          63.6360   91.6193   14.7755 O.2     1  UNL1       -0.2491
     27 C          66.1305   91.3581   14.0982 C.3     1  UNL1        0.1670
     28 S          66.1921   92.7883   13.6498 S.3     1  UNL1       -0.1270
     29 C          66.6352   93.1187   12.2553 C.3     1  UNL1        0.0751
     30 C          67.2788   92.0651   11.4035 C.3     1  UNL1        0.0146
     31 C          67.7219   92.3955   10.0090 C.3     1  UNL1        0.0165
     32 C          67.5214   93.7795    9.4665 C.3     1  UNL1        0.0533
     33 N          67.9646   94.1099    8.0720 N.3     1  UNL1       -0.3221
     34 C          66.8778   94.8331   10.3183 C.3     1  UNL1        0.0456
     35 C          66.4347   94.5027   11.7128 C.3     1  UNL1        0.1217
     36 O          65.7911   95.5563   12.5647 O.3     1  UNL1       -0.3835
     37 H          67.7525   95.0870    7.8705 H       1  UNL1        0.1188
     38 H          67.4730   93.5114    7.4083 H       1  UNL1        0.1188
     39 H          65.5670   95.1799   13.4302 H       1  UNL1        0.2104
@<TRIPOS>BOND
     1    22    23    2
     2    23     1    1
     3     1     2    1
     4     1     3    1
     5     3     4    1
     6     4    24    1
     7    24    25    1
     8    25    26    2
     9    25    27    1
    10    27    28    1
    11    29    28    1
    12    29    30    1
    13    30    31    1
    14    31    32    1
    15    32    33    1
    16    32    34    1
    17    34    35    1
    18    35    36    1
    19     4     5    1
    20     5     6    1
    21     5     7    1
    22     7     8    1
    23     7     9    1
    24     9    10    1
    25    11    10    1
    26    11    12    1
    27    12    13    1
    28    13    14    1
    29    14    15    2
    30    16    14    1
    31    11    17    1
    32    17    18    1
    33    17    19    1
    34    19    20    1
    35    19     1    1
    36    35    29    1
    37    16     5    1
    38    16    11    1
    39    33    37    1
    40    33    38    1
    41    36    39    1
    42    20    21    1
@<TRIPOS>MOLECULE
*****
 39 42 0 0 0
SMALL
GASTEIGER

@<TRIPOS>ATOM
      1 C          62.6390   87.9887   11.5955 C.3     1  UNL1        0.0468
      2 C          61.8677   89.3724   10.2185 C.3     1  UNL1        0.0069
      3 C          63.1014   87.9965   12.4416 C.3     1  UNL1        0.0500
      4 C          63.4381   87.3203   13.0410 C.3     1  UNL1        0.1694
      5 C          63.7659   86.0936   13.6103 C.3     1  UNL1        0.0435
      6 C          64.4386   85.5310   14.8272 C.3     1  UNL1        0.0040
      7 C          63.3717   86.1948   12.8917 C.3     1  UNL1        0.0038
      8 C          63.8157   88.6043   13.7634 C.3     1  UNL1        0.0001
      9 C          62.9629   86.3096   12.1466 C.3     1  UNL1        0.0001
     10 C          62.7641   85.6985   11.7677 C.3     1  UNL1        0.0005
     11 C          62.5532   85.0121   11.3649 C.3     1  UNL1        0.0093
     12 C          62.3513   83.5819   10.9603 C.3     1  UNL1        0.0082
     13 C          62.9458   82.7103   12.0264 C.3     1  UNL1        0.0645
     14 C          63.5151   83.6018   13.0900 C.2     1  UNL1        0.1504
     15 O          64.2058   83.1499   14.3425 O.2     1  UNL1       -0.2961
     16 C          63.2724   85.0244   12.6811 C.3     1  UNL1        0.0610
     17 C          62.3357   86.3372   10.9997 C.3     1  UNL1        0.0276
     18 C          61.3731   85.4787    9.2174 C.3     1  UNL1        0.0025
     19 C          62.3218   87.3013   10.9982 C.3     1  UNL1        0.1141
     20 O          61.3352   88.1265    9.2134 O.3     1  UNL1       -0.3841
     21 H          61.3459   89.0955    9.2569 H       1  UNL1        0.2103
     22 C          63.7115   91.0895   11.3113 C.2     1  UNL1       -0.0048
     23 C          62.6667   90.0850   11.6980 C.2     1  UNL1       -0.0243
     24 O          64.4007   88.1788   14.8232 O.3     1  UNL1       -0.4517
     25 C          63.5611   88.6938   15.9545 C.2     1  UNL1        0.3280
     26 O          62.7920   87.7352   16.8145 O.2     1  UNL1       -0.2491
     27 C          63.4905   90.1673   16.2257 C.3     1  UNL1        0.1670
     28 S          63.9007   91.1457   15.1653 S.3     1  UNL1       -0.1270
     29 C          65.3112   91.6541   15.1189 C.3     1  UNL1        0.0751
     30 C          66.2056   91.2809   13.9741 C.3     1  UNL1        0.0146
     31 C          67.6161   91.7893   13.9277 C.3     1  UNL1        0.0165
     32 C          68.1321   92.6708   15.0262 C.3     1  UNL1        0.0533
     33 N          69.5425   93.1792   14.9799 N.3     1  UNL1       -0.3221
     34 C          67.2376   93.0440   16.1711 C.3     1  UNL1        0.0456
     35 C          65.8271   92.5356   16.2174 C.3     1  UNL1        0.1217
     36 O          64.9326   92.9088   17.3623 O.3     1  UNL1       -0.3835
     37 H          69.7221   93.7589   15.7997 H       1  UNL1        0.1188
     38 H          69.6762   93.7347   14.1349 H       1  UNL1        0.1188
     39 H          64.0617   92.5000   17.2387 H       1  UNL1        0.2104
@<TRIPOS>BOND
     1    22    23    2
     2    23     1    1
     3     1     2    1
     4     1     3    1
     5     3     4    1
     6     4    24    1
     7    24    25    1
     8    25    26    2
     9    25    27    1
    10    27    28    1
    11    29    28    1
    12    29    30    1
    13    30    31    1
    14    31    32    1
    15    32    33    1
    16    32    34    1
    17    34    35    1
    18    35    36    1
    19     4     5    1
    20     5     6    1
    21     5     7    1
    22     7     8    1
    23     7     9    1
    24     9    10    1
    25    11    10    1
    26    11    12    1
    27    12    13    1
    28    13    14    1
    29    14    15    2
    30    16    14    1
    31    11    17    1
    32    17    18    1
    33    17    19    1
    34    19    20    1
    35    19     1    1
    36    35    29    1
    37    16     5    1
    38    16    11    1
    39    33    37    1
    40    33    38    1
    41    36    39    1
    42    20    21    1
@<TRIPOS>MOLECULE
*****
 39 42 0 0 0
SMALL
GASTEIGER

@<TRIPOS>ATOM
      1 C          63.3541   86.7919   12.7596 C.3     1  UNL1        0.0468
      2 C          64.2886   85.4062   14.0294 C.3     1  UNL1        0.0069
      3 C          63.2145   87.7447   12.7123 C.3     1  UNL1        0.0500
      4 C          62.7703   88.3391   12.0965 C.3     1  UNL1        0.1694
      5 C          62.0524   88.8346   11.0123 C.3     1  UNL1        0.0435
      6 C          61.5609   90.1372   10.4541 C.3     1  UNL1        0.0040
      7 C          62.2256   88.0381   11.1446 C.3     1  UNL1        0.0038
      8 C          63.2980   89.3038   13.1472 C.3     1  UNL1        0.0001
      9 C          62.4102   87.2134   11.2902 C.3     1  UNL1        0.0001
     10 C          62.1650   86.7148   10.7923 C.3     1  UNL1        0.0005
     11 C          61.8858   86.1804   10.2317 C.3     1  UNL1        0.0093
     12 C          61.2301   85.5560    9.0357 C.3     1  UNL1        0.0082
     13 C          60.6077   86.6525    8.2232 C.3     1  UNL1        0.0645
     14 C          60.8787   87.9545    8.9169 C.2     1  UNL1        0.1504
     15 O          60.4373   89.3103    8.4510 O.2     1  UNL1       -0.2961
     16 C          61.6686   87.6627   10.1582 C.3     1  UNL1        0.0610
     17 C          62.6189   85.9262   11.3869 C.3     1  UNL1        0.0276
     18 C          62.4866   83.8193   10.7672 C.3     1  UNL1        0.0025
     19 C          63.1074   86.0385   12.2105 C.3     1  UNL1        0.1141
     20 O          63.8282   84.1280   13.0293 O.3     1  UNL1       -0.3841
     21 H          64.3116   84.2916   13.8542 H       1  UNL1        0.2103
     22 C          64.0900   88.0338   15.7196 C.2     1  UNL1       -0.0048
     23 C          64.3984   87.1551   14.5438 C.2     1  UNL1       -0.0243
     24 O          62.9026   90.4459   12.7162 O.3     1  UNL1       -0.4517
     25 C          64.2439   91.0978   12.8763 C.2     1  UNL1        0.3280
     26 O          65.1510   90.6818   13.9961 O.2     1  UNL1       -0.2491
     27 C          64.6781   92.1657   11.9167 C.3     1  UNL1        0.1670
     28 S          66.0115   92.8312   12.0883 S.3     1  UNL1       -0.1270
     29 C          66.4855   93.8328   11.0773 C.3     1  UNL1        0.0751
     30 C          66.0590   95.2669   11.1853 C.3     1  UNL1        0.0146
     31 C          66.5330   96.2685   10.1743 C.3     1  UNL1        0.0165
     32 C          67.4334   95.8360    9.0553 C.3     1  UNL1        0.0533
     33 N          67.9074   96.8376    8.0443 N.3     1  UNL1       -0.3221
     34 C          67.8599   94.4020    8.9472 C.3     1  UNL1        0.0456
     35 C          67.3859   93.4004    9.9583 C.3     1  UNL1        0.1217
     36 O          67.8123   91.9663    9.8503 O.3     1  UNL1       -0.3835
     37 H          68.5060   96.3737    7.3609 H       1  UNL1        0.1188
     38 H          68.4352   97.5724    8.5153 H       1  UNL1        0.1188
     39 H          67.4204   91.4568   10.5768 H       1  UNL1        0.2104
@<TRIPOS>BOND
     1    22    23    2
     2    23     1    1
     3     1     2    1
     4     1     3    1
     5     3     4    1
     6     4    24    1
     7    24    25    1
     8    25    26    2
     9    25    27    1
    10    27    28    1
    11    29    28    1
    12    29    30    1
    13    30    31    1
    14    31    32    1
    15    32    33    1
    16    32    34    1
    17    34    35    1
    18    35    36    1
    19     4     5    1
    20     5     6    1
    21     5     7    1
    22     7     8    1
    23     7     9    1
    24     9    10    1
    25    11    10    1
    26    11    12    1
    27    12    13    1
    28    13    14    1
    29    14    15    2
    30    16    14    1
    31    11    17    1
    32    17    18    1
    33    17    19    1
    34    19    20    1
    35    19     1    1
    36    35    29    1
    37    16     5    1
    38    16    11    1
    39    33    37    1
    40    33    38    1
    41    36    39    1
    42    20    21    1
@<TRIPOS>MOLECULE
*****
 39 42 0 0 0
SMALL
GASTEIGER

@<TRIPOS>ATOM
      1 C          63.4018   86.3927   12.8137 C.3     1  UNL1        0.0468
      2 C          64.2058   84.8324   13.9648 C.3     1  UNL1        0.0069
      3 C          63.3552   87.3554   12.8387 C.3     1  UNL1        0.0500
      4 C          62.9667   88.0342   12.2746 C.3     1  UNL1        0.1694
      5 C          62.2930   88.6762   11.2401 C.3     1  UNL1        0.0435
      6 C          61.9267   90.0582   10.7863 C.3     1  UNL1        0.0040
      7 C          62.3887   87.8590   11.3110 C.3     1  UNL1        0.0038
      8 C          63.5930   88.8623   13.3860 C.3     1  UNL1        0.0001
      9 C          62.4932   87.0118   11.3928 C.3     1  UNL1        0.0001
     10 C          62.1973   86.5778   10.8631 C.3     1  UNL1        0.0005
     11 C          61.8634   86.1161   10.2687 C.3     1  UNL1        0.0093
     12 C          61.1419   85.6489    9.0394 C.3     1  UNL1        0.0082
     13 C          60.6235   86.8580    8.3187 C.3     1  UNL1        0.0645
     14 C          61.0247   88.0724    9.1024 C.2     1  UNL1        0.1504
     15 O          60.7141   89.4954    8.7439 O.2     1  UNL1       -0.2961
     16 C          61.7910   87.6139   10.3076 C.3     1  UNL1        0.0610
     17 C          62.5763   85.7069   11.3916 C.3     1  UNL1        0.0276
     18 C          62.2353   83.6748   10.6204 C.3     1  UNL1        0.0025
     19 C          63.0791   85.7098   12.2142 C.3     1  UNL1        0.1141
     20 O          63.6163   83.6828   12.8798 O.3     1  UNL1       -0.3841
     21 H          64.1190   83.7370   13.7077 H       1  UNL1        0.2103
     22 C          64.0479   86.6349   16.0339 C.2     1  UNL1       -0.0048
     23 C          64.4888   86.5192   14.6049 C.2     1  UNL1       -0.0243
     24 O          63.3077   90.0662   13.0458 O.3     1  UNL1       -0.4517
     25 C          63.6292   90.2739   14.4961 C.2     1  UNL1        0.3280
     26 O          62.6094   89.9431   15.5452 O.2     1  UNL1       -0.2491
     27 C          64.9704   90.8125   14.8973 C.3     1  UNL1        0.1670
     28 S          65.4355   92.1370   14.3686 S.3     1  UNL1       -0.1270
     29 C          66.1440   92.2107   13.0485 C.3     1  UNL1        0.0751
     30 C          65.3782   92.5505   11.8043 C.3     1  UNL1        0.0146
     31 C          66.0866   92.6242   10.4842 C.3     1  UNL1        0.0165
     32 C          67.5609   92.3581   10.4084 C.3     1  UNL1        0.0533
     33 N          68.2694   92.4319    9.0883 N.3     1  UNL1       -0.3221
     34 C          68.3268   92.0184   11.6526 C.3     1  UNL1        0.0456
     35 C          67.6183   91.9446   12.9727 C.3     1  UNL1        0.1217
     36 O          68.3841   91.6048   14.2170 O.3     1  UNL1       -0.3835
     37 H          69.2591   92.2243    9.2215 H       1  UNL1        0.1188
     38 H          68.1679   93.3695    8.6998 H       1  UNL1        0.1188
     39 H          67.7808   91.5993   14.9765 H       1  UNL1        0.2104
@<TRIPOS>BOND
     1    22    23    2
     2    23     1    1
     3     1     2    1
     4     1     3    1
     5     3     4    1
     6     4    24    1
     7    24    25    1
     8    25    26    2
     9    25    27    1
    10    27    28    1
    11    29    28    1
    12    29    30    1
    13    30    31    1
    14    31    32    1
    15    32    33    1
    16    32    34    1
    17    34    35    1
    18    35    36    1
    19     4     5    1
    20     5     6    1
    21     5     7    1
    22     7     8    1
    23     7     9    1
    24     9    10    1
    25    11    10    1
    26    11    12    1
    27    12    13    1
    28    13    14    1
    29    14    15    2
    30    16    14    1
    31    11    17    1
    32    17    18    1
    33    17    19    1
    34    19    20    1
    35    19     1    1
    36    35    29    1
    37    16     5    1
    38    16    11    1
    39    33    37    1
    40    33    38    1
    41    36    39    1
    42    20    21    1
@<TRIPOS>MOLECULE
*****
 39 42 0 0 0
SMALL
GASTEIGER

@<TRIPOS>ATOM
      1 C          62.8078   86.9092   11.5745 C.3     1  UNL1        0.0468
      2 C          62.1885   87.9940    9.8876 C.3     1  UNL1        0.0069
      3 C          63.1231   87.0863   12.4683 C.3     1  UNL1        0.0500
      4 C          63.3982   86.5414   13.2148 C.3     1  UNL1        0.1694
      5 C          63.7040   85.4492   14.0210 C.3     1  UNL1        0.0435
      6 C          64.2011   85.1396   15.4020 C.3     1  UNL1        0.0040
      7 C          63.4280   85.4049   13.2440 C.3     1  UNL1        0.0038
      8 C          63.5704   87.9485   13.7656 C.3     1  UNL1        0.0001
      9 C          63.1411   85.3686   12.4366 C.3     1  UNL1        0.0001
     10 C          63.0460   84.6919   12.1374 C.3     1  UNL1        0.0005
     11 C          62.9477   83.9363   11.8253 C.3     1  UNL1        0.0093
     12 C          62.9053   82.4490   11.6350 C.3     1  UNL1        0.0082
     13 C          63.3696   81.8054   12.9078 C.3     1  UNL1        0.0645
     14 C          63.6990   82.8949   13.8848 C.2     1  UNL1        0.1504
     15 O          64.2009   82.7014   15.2850 O.2     1  UNL1       -0.2961
     16 C          63.4383   84.2119   13.2158 C.3     1  UNL1        0.0610
     17 C          62.7107   85.1661   11.2186 C.3     1  UNL1        0.0276
     18 C          62.1105   83.9651    9.4757 C.3     1  UNL1        0.0025
     19 C          62.6370   86.1137   11.0568 C.3     1  UNL1        0.1141
     20 O          61.9079   86.5678    9.0314 O.3     1  UNL1       -0.3841
     21 H          61.8505   87.5292    8.9164 H       1  UNL1        0.2103
     22 C          61.6600   89.9891   11.7807 C.2     1  UNL1       -0.0048
     23 C          62.6868   88.9909   11.3344 C.2     1  UNL1       -0.0243
     24 O          63.9985   87.7423   14.9576 O.3     1  UNL1       -0.4517
     25 C          63.9482   89.2399   14.8898 C.2     1  UNL1        0.3280
     26 O          62.6569   89.9593   15.1447 O.2     1  UNL1       -0.2491
     27 C          65.1892   90.0181   14.5671 C.3     1  UNL1        0.1670
     28 S          65.1572   91.5178   14.5746 S.3     1  UNL1       -0.1270
     29 C          65.3728   92.2789   13.3001 C.3     1  UNL1        0.0751
     30 C          64.7919   91.7691   12.0146 C.3     1  UNL1        0.0146
     31 C          65.0075   92.5302   10.7402 C.3     1  UNL1        0.0165
     32 C          65.8040   93.8012   10.7513 C.3     1  UNL1        0.0533
     33 N          66.0196   94.5624    9.4768 N.3     1  UNL1       -0.3221
     34 C          66.3850   94.3111   12.0368 C.3     1  UNL1        0.0456
     35 C          66.1694   93.5499   13.3112 C.3     1  UNL1        0.1217
     36 O          66.7504   94.0597   14.5968 O.3     1  UNL1       -0.3835
     37 H          66.5784   95.3941    9.6679 H       1  UNL1        0.1188
     38 H          65.1176   94.8402    9.0900 H       1  UNL1        0.1188
     39 H          66.5193   93.4543   15.3186 H       1  UNL1        0.2104
@<TRIPOS>BOND
     1    22    23    2
     2    23     1    1
     3     1     2    1
     4     1     3    1
     5     3     4    1
     6     4    24    1
     7    24    25    1
     8    25    26    2
     9    25    27    1
    10    27    28    1
    11    29    28    1
    12    29    30    1
    13    30    31    1
    14    31    32    1
    15    32    33    1
    16    32    34    1
    17    34    35    1
    18    35    36    1
    19     4     5    1
    20     5     6    1
    21     5     7    1
    22     7     8    1
    23     7     9    1
    24     9    10    1
    25    11    10    1
    26    11    12    1
    27    12    13    1
    28    13    14    1
    29    14    15    2
    30    16    14    1
    31    11    17    1
    32    17    18    1
    33    17    19    1
    34    19    20    1
    35    19     1    1
    36    35    29    1
    37    16     5    1
    38    16    11    1
    39    33    37    1
    40    33    38    1
    41    36    39    1
    42    20    21    1
@<TRIPOS>MOLECULE
*****
 39 42 0 0 0
SMALL
GASTEIGER

@<TRIPOS>ATOM
      1 C          63.3992   90.7624   12.1204 C.3     1  UNL1        0.0468
      2 C          62.6076   90.3980   10.2109 C.3     1  UNL1        0.0069
      3 C          63.2620   90.4610   13.0260 C.3     1  UNL1        0.0500
      4 C          63.6603   90.6649   13.8802 C.3     1  UNL1        0.1694
      5 C          64.4633   91.2162   14.8740 C.3     1  UNL1        0.0435
      6 C          64.6831   91.1341   16.3555 C.3     1  UNL1        0.0040
      7 C          64.5014   91.4061   14.0712 C.3     1  UNL1        0.0038
      8 C          62.6149   89.6257   14.2549 C.3     1  UNL1        0.0001
      9 C          64.5337   91.5970   13.2358 C.3     1  UNL1        0.0001
     10 C          65.0367   92.1039   13.0198 C.3     1  UNL1        0.0005
     11 C          65.5981   92.6653   12.8017 C.3     1  UNL1        0.0093
     12 C          66.7003   93.6826   12.8137 C.3     1  UNL1        0.0082
     13 C          67.1681   93.8424   14.2299 C.3     1  UNL1        0.0645
     14 C          66.3550   92.9239   15.0931 C.2     1  UNL1        0.1504
     15 O          66.4887   92.7615   16.5783 O.2     1  UNL1       -0.2961
     16 C          65.3847   92.1964   14.2104 C.3     1  UNL1        0.0610
     17 C          64.6919   91.9821   11.9963 C.3     1  UNL1        0.0276
     18 C          65.5928   93.1324   10.3514 C.3     1  UNL1        0.0025
     19 C          63.9915   91.3925   11.6939 C.3     1  UNL1        0.1141
     20 O          63.6692   91.5130    9.5210 O.3     1  UNL1       -0.3841
     21 H          62.9582   90.9046    9.2653 H       1  UNL1        0.2103
     22 C          60.3684   89.5445   11.7000 C.2     1  UNL1       -0.0048
     23 C          61.8598   89.4432   11.5763 C.2     1  UNL1       -0.0243
     24 O          62.7595   89.5146   15.5251 O.3     1  UNL1       -0.4517
     25 C          63.3270   88.1793   15.9054 C.2     1  UNL1        0.3280
     26 O          63.0862   87.6256   17.2785 O.2     1  UNL1       -0.2491
     27 C          64.1353   87.3977   14.9127 C.3     1  UNL1        0.1670
     28 S          64.6708   86.0455   15.2801 S.3     1  UNL1       -0.1270
     29 C          64.0411   84.8092   14.7100 C.3     1  UNL1        0.0751
     30 C          64.6884   84.1013   13.5568 C.3     1  UNL1        0.0146
     31 C          64.0586   82.8650   12.9867 C.3     1  UNL1        0.0165
     32 C          62.7817   82.3366   13.5700 C.3     1  UNL1        0.0533
     33 N          62.1519   81.1002   12.9999 N.3     1  UNL1       -0.3221
     34 C          62.1344   83.0444   14.7232 C.3     1  UNL1        0.0456
     35 C          62.7641   84.2807   15.2933 C.3     1  UNL1        0.1217
     36 O          62.1169   84.9886   16.4466 O.3     1  UNL1       -0.3835
     37 H          61.2969   80.8864   13.5134 H       1  UNL1        0.1188
     38 H          62.8022   80.3187   13.0818 H       1  UNL1        0.1188
     39 H          62.6485   85.7624   16.6905 H       1  UNL1        0.2104
@<TRIPOS>BOND
     1    22    23    2
     2    23     1    1
     3     1     2    1
     4     1     3    1
     5     3     4    1
     6     4    24    1
     7    24    25    1
     8    25    26    2
     9    25    27    1
    10    27    28    1
    11    29    28    1
    12    29    30    1
    13    30    31    1
    14    31    32    1
    15    32    33    1
    16    32    34    1
    17    34    35    1
    18    35    36    1
    19     4     5    1
    20     5     6    1
    21     5     7    1
    22     7     8    1
    23     7     9    1
    24     9    10    1
    25    11    10    1
    26    11    12    1
    27    12    13    1
    28    13    14    1
    29    14    15    2
    30    16    14    1
    31    11    17    1
    32    17    18    1
    33    17    19    1
    34    19    20    1
    35    19     1    1
    36    35    29    1
    37    16     5    1
    38    16    11    1
    39    33    37    1
    40    33    38    1
    41    36    39    1
    42    20    21    1
@<TRIPOS>MOLECULE
*****
 39 42 0 0 0
SMALL
GASTEIGER

@<TRIPOS>ATOM
      1 C          63.2904   88.7775   12.7793 C.3     1  UNL1        0.0468
      2 C          63.9509   90.4337   13.8868 C.3     1  UNL1        0.0069
      3 C          63.3366   87.8156   12.8261 C.3     1  UNL1        0.0500
      4 C          63.0102   87.0899   12.2813 C.3     1  UNL1        0.1694
      5 C          62.3923   86.3627   11.2686 C.3     1  UNL1        0.0435
      6 C          62.1564   84.9419   10.8495 C.3     1  UNL1        0.0040
      7 C          62.4099   87.1867   11.3203 C.3     1  UNL1        0.0038
      8 C          63.7225   86.3514   13.4040 C.3     1  UNL1        0.0001
      9 C          62.4333   88.0417   11.3822 C.3     1  UNL1        0.0001
     10 C          62.0926   88.4330   10.8463 C.3     1  UNL1        0.0005
     11 C          61.7109   88.8467   10.2453 C.3     1  UNL1        0.0093
     12 C          60.9374   89.2143    9.0138 C.3     1  UNL1        0.0082
     13 C          60.5312   87.9449    8.3256 C.3     1  UNL1        0.0645
     14 C          61.0537   86.7928    9.1317 C.2     1  UNL1        0.1504
     15 O          60.8780   85.3387    8.8082 O.2     1  UNL1       -0.2961
     16 C          61.7828   87.3502   10.3182 C.3     1  UNL1        0.0610
     17 C          62.3908   89.3482   11.3512 C.3     1  UNL1        0.0276
     18 C          61.8499   91.3199   10.5388 C.3     1  UNL1        0.0025
     19 C          62.8986   89.4124   12.1683 C.3     1  UNL1        0.1141
     20 O          63.2446   91.4962   12.7830 O.3     1  UNL1       -0.3841
     21 H          63.7572   91.5096   13.6064 H       1  UNL1        0.2103
     22 C          63.9773   88.7743   16.0001 C.2     1  UNL1       -0.0048
     23 C          64.3998   88.7970   14.5610 C.2     1  UNL1       -0.0243
     24 O          63.5510   85.1182   13.0936 O.3     1  UNL1       -0.4517
     25 C          63.1647   84.7531   14.4963 C.2     1  UNL1        0.3280
     26 O          62.7385   85.8216   15.4589 O.2     1  UNL1       -0.2491
     27 C          63.2047   83.3198   14.9363 C.3     1  UNL1        0.1670
     28 S          64.1656   82.3642   14.2931 S.3     1  UNL1       -0.1270
     29 C          63.7600   81.6064   13.0638 C.3     1  UNL1        0.0751
     30 C          62.8962   80.3862   13.1860 C.3     1  UNL1        0.0146
     31 C          62.4906   79.6283   11.9566 C.3     1  UNL1        0.0165
     32 C          62.9488   80.0907   10.6053 C.3     1  UNL1        0.0533
     33 N          62.5432   79.3328    9.3760 N.3     1  UNL1       -0.3221
     34 C          63.8126   81.3109   10.4831 C.3     1  UNL1        0.0456
     35 C          64.2182   82.0688   11.7124 C.3     1  UNL1        0.1217
     36 O          65.0820   83.2890   11.5904 O.3     1  UNL1       -0.3835
     37 H          62.9406   79.7839    8.5519 H       1  UNL1        0.1188
     38 H          61.5259   79.3247    9.3017 H       1  UNL1        0.1188
     39 H          65.2497   83.6560   12.4725 H       1  UNL1        0.2104
@<TRIPOS>BOND
     1    22    23    2
     2    23     1    1
     3     1     2    1
     4     1     3    1
     5     3     4    1
     6     4    24    1
     7    24    25    1
     8    25    26    2
     9    25    27    1
    10    27    28    1
    11    29    28    1
    12    29    30    1
    13    30    31    1
    14    31    32    1
    15    32    33    1
    16    32    34    1
    17    34    35    1
    18    35    36    1
    19     4     5    1
    20     5     6    1
    21     5     7    1
    22     7     8    1
    23     7     9    1
    24     9    10    1
    25    11    10    1
    26    11    12    1
    27    12    13    1
    28    13    14    1
    29    14    15    2
    30    16    14    1
    31    11    17    1
    32    17    18    1
    33    17    19    1
    34    19    20    1
    35    19     1    1
    36    35    29    1
    37    16     5    1
    38    16    11    1
    39    33    37    1
    40    33    38    1
    41    36    39    1
    42    20    21    1
@<TRIPOS>MOLECULE
*****
 39 42 0 0 0
SMALL
GASTEIGER

@<TRIPOS>ATOM
      1 C          61.1709   86.3220    8.5340 C.3     1  UNL1        0.0468
      2 C          60.4184   85.5959    6.7141 C.3     1  UNL1        0.0069
      3 C          61.7738   86.0348    9.2295 C.3     1  UNL1        0.0500
      4 C          62.0892   86.4140   10.0581 C.3     1  UNL1        0.1694
      5 C          62.2932   87.2738   11.1329 C.3     1  UNL1        0.0435
      6 C          63.0663   87.3513   12.4161 C.3     1  UNL1        0.0040
      7 C          61.7989   87.4256   10.4891 C.3     1  UNL1        0.0038
      8 C          62.8130   85.0768   10.0227 C.3     1  UNL1        0.0001
      9 C          61.2880   87.5746    9.8167 C.3     1  UNL1        0.0001
     10 C          60.9186   88.2226    9.8045 C.3     1  UNL1        0.0005
     11 C          60.5199   88.9430    9.8096 C.3     1  UNL1        0.0093
     12 C          59.9982   90.2998   10.1797 C.3     1  UNL1        0.0082
     13 C          60.6136   90.6913   11.4904 C.3     1  UNL1        0.0645
     14 C          61.5156   89.5765   11.9304 C.2     1  UNL1        0.1504
     15 O          62.3321   89.5474   13.1884 O.2     1  UNL1       -0.2961
     16 C          61.4577   88.4960   10.8916 C.3     1  UNL1        0.0610
     17 C          60.4771   87.9314    8.8550 C.3     1  UNL1        0.0276
     18 C          59.0694   89.2563    7.8046 C.3     1  UNL1        0.0025
     19 C          60.6338   87.1077    8.3788 C.3     1  UNL1        0.1141
     20 O          59.4999   86.9942    6.4970 O.3     1  UNL1       -0.3841
     21 H          59.6894   86.1515    6.0556 H       1  UNL1        0.2103
     22 C          62.4142   84.1633    6.3799 C.2     1  UNL1       -0.0048
     23 C          61.5868   84.4961    7.5860 C.2     1  UNL1       -0.0243
     24 O          63.4968   85.0891   11.1084 O.3     1  UNL1       -0.4517
     25 C          63.6520   83.6625   10.6720 C.2     1  UNL1        0.3280
     26 O          64.1281   83.3503    9.2843 O.2     1  UNL1       -0.2491
     27 C          63.3310   82.5480   11.6232 C.3     1  UNL1        0.1670
     28 S          64.0666   82.4384   12.9258 S.3     1  UNL1       -0.1270
     29 C          63.8199   83.4418   14.0132 C.3     1  UNL1        0.0751
     30 C          64.7644   84.5919   14.2008 C.3     1  UNL1        0.0146
     31 C          64.5177   85.5952   15.2883 C.3     1  UNL1        0.0165
     32 C          63.3265   85.4484   16.1880 C.3     1  UNL1        0.0533
     33 N          63.0798   86.4518   17.2754 N.3     1  UNL1       -0.3221
     34 C          62.3820   84.2984   16.0004 C.3     1  UNL1        0.0456
     35 C          62.6287   83.2950   14.9130 C.3     1  UNL1        0.1217
     36 O          61.6842   82.1449   14.7253 O.3     1  UNL1       -0.3835
     37 H          62.2333   86.1992   17.7855 H       1  UNL1        0.1188
     38 H          62.9651   87.3780   16.8638 H       1  UNL1        0.1188
     39 H          61.9868   81.5954   13.9853 H       1  UNL1        0.2104
@<TRIPOS>BOND
     1    22    23    2
     2    23     1    1
     3     1     2    1
     4     1     3    1
     5     3     4    1
     6     4    24    1
     7    24    25    1
     8    25    26    2
     9    25    27    1
    10    27    28    1
    11    29    28    1
    12    29    30    1
    13    30    31    1
    14    31    32    1
    15    32    33    1
    16    32    34    1
    17    34    35    1
    18    35    36    1
    19     4     5    1
    20     5     6    1
    21     5     7    1
    22     7     8    1
    23     7     9    1
    24     9    10    1
    25    11    10    1
    26    11    12    1
    27    12    13    1
    28    13    14    1
    29    14    15    2
    30    16    14    1
    31    11    17    1
    32    17    18    1
    33    17    19    1
    34    19    20    1
    35    19     1    1
    36    35    29    1
    37    16     5    1
    38    16    11    1
    39    33    37    1
    40    33    38    1
    41    36    39    1
    42    20    21    1
@<TRIPOS>MOLECULE
*****
 39 42 0 0 0
SMALL
GASTEIGER

@<TRIPOS>ATOM
      1 C          62.3484   86.1039   10.3749 C.3     1  UNL1        0.0468
      2 C          61.6882   85.7363    8.4167 C.3     1  UNL1        0.0069
      3 C          62.4234   86.8500   10.9811 C.3     1  UNL1        0.0500
      4 C          62.7393   86.9652   11.8849 C.3     1  UNL1        0.1694
      5 C          63.2646   86.7204   13.1499 C.3     1  UNL1        0.0435
      6 C          63.5936   87.4455   14.4212 C.3     1  UNL1        0.0040
      7 C          63.1593   86.1521   12.5601 C.3     1  UNL1        0.0038
      8 C          62.3111   88.3766   11.5137 C.3     1  UNL1        0.0001
      9 C          63.0464   85.5689   11.9416 C.3     1  UNL1        0.0001
     10 C          63.2469   84.8665   12.0929 C.3     1  UNL1        0.0005
     11 C          63.4744   84.0974   12.2793 C.3     1  UNL1        0.0093
     12 C          63.9883   82.8759   12.9819 C.3     1  UNL1        0.0082
     13 C          64.4225   83.2816   14.3591 C.3     1  UNL1        0.0645
     14 C          64.1770   84.7539   14.5077 C.2     1  UNL1        0.1504
     15 O          64.4666   85.5774   15.7275 O.2     1  UNL1       -0.2961
     16 C          63.5910   85.2581   13.2222 C.3     1  UNL1        0.0610
     17 C          62.9300   84.5807   11.0933 C.3     1  UNL1        0.0276
     18 C          63.0965   82.4987   10.4022 C.3     1  UNL1        0.0025
     19 C          62.5583   85.1639   10.4214 C.3     1  UNL1        0.1141
     20 O          62.0757   84.1004    8.5570 O.3     1  UNL1       -0.3841
     21 H          61.7062   84.7259    7.9142 H       1  UNL1        0.2103
     22 C          60.1770   88.0511    8.8455 C.2     1  UNL1       -0.0048
     23 C          61.5500   87.4645    8.9904 C.2     1  UNL1       -0.0243
     24 O          62.5728   89.0472   12.5759 O.3     1  UNL1       -0.4517
     25 C          62.4487   90.1608   11.5788 C.2     1  UNL1        0.3280
     26 O          61.0995   90.7312   11.2555 O.2     1  UNL1       -0.2491
     27 C          63.6736   90.7041   10.9049 C.3     1  UNL1        0.1670
     28 S          64.2022   92.0554   11.2856 S.3     1  UNL1       -0.1270
     29 C          65.0197   92.2168   12.5328 C.3     1  UNL1        0.0751
     30 C          64.8922   91.2209   13.6473 C.3     1  UNL1        0.0146
     31 C          65.7098   91.3823   14.8945 C.3     1  UNL1        0.0165
     32 C          66.6548   92.5396   15.0272 C.3     1  UNL1        0.0533
     33 N          67.4723   92.7011   16.2745 N.3     1  UNL1       -0.3221
     34 C          66.7823   93.5355   13.9128 C.3     1  UNL1        0.0456
     35 C          65.9648   93.3741   12.6656 C.3     1  UNL1        0.1217
     36 O          66.0922   94.3699   11.5511 O.3     1  UNL1       -0.3835
     37 H          68.0546   93.5346   16.1938 H       1  UNL1        0.1188
     38 H          68.0669   91.8818   16.3997 H       1  UNL1        0.1188
     39 H          65.4993   94.1204   10.8251 H       1  UNL1        0.2104
@<TRIPOS>BOND
     1    22    23    2
     2    23     1    1
     3     1     2    1
     4     1     3    1
     5     3     4    1
     6     4    24    1
     7    24    25    1
     8    25    26    2
     9    25    27    1
    10    27    28    1
    11    29    28    1
    12    29    30    1
    13    30    31    1
    14    31    32    1
    15    32    33    1
    16    32    34    1
    17    34    35    1
    18    35    36    1
    19     4     5    1
    20     5     6    1
    21     5     7    1
    22     7     8    1
    23     7     9    1
    24     9    10    1
    25    11    10    1
    26    11    12    1
    27    12    13    1
    28    13    14    1
    29    14    15    2
    30    16    14    1
    31    11    17    1
    32    17    18    1
    33    17    19    1
    34    19    20    1
    35    19     1    1
    36    35    29    1
    37    16     5    1
    38    16    11    1
    39    33    37    1
    40    33    38    1
    41    36    39    1
    42    20    21    1
