@<TRIPOS>MOLECULE
*****
 26 28 0 0 0
SMALL
GASTEIGER

@<TRIPOS>ATOM
      1 C          60.9394   88.5053    9.3954 C.ar    1  UNL1        0.1384
      2 C          61.2383   89.9435    9.6989 C.ar    1  UNL1        0.0369
      3 C          62.0957   90.2988   10.8772 C.ar    1  UNL1        0.0025
      4 C          62.6544   89.2159   11.7520 C.ar    1  UNL1       -0.0077
      5 C          62.3555   87.7777   11.4485 C.ar    1  UNL1       -0.0154
      6 C          61.4980   87.4224   10.2701 C.ar    1  UNL1        0.0329
      7 C          63.0407   86.9337   12.4820 C.3     1  UNL1        0.0481
      8 C          63.7631   87.8504   13.4243 C.2     1  UNL1       -0.0421
      9 C          63.5243   89.2608   12.9732 C.2     1  UNL1       -0.0245
     10 C          59.4186   86.8063    8.1502 C.3     1  UNL1        0.2525
     11 O          60.0819   88.1499    8.2170 O.3     1  UNL1       -0.4714
     12 C          64.0611   90.4989   13.6281 C.3     1  UNL1        0.0666
     13 C          63.7019   90.8108   15.0507 C.3     1  UNL1        0.0112
     14 C          64.9573   91.4251   12.8607 C.ar    1  UNL1        0.1156
     15 N          64.5057   91.9865   11.5450 N.ar    1  UNL1       -0.2415
     16 C          65.4018   92.9127   10.7775 C.ar    1  UNL1        0.1193
     17 C          66.7495   93.2775   11.3255 C.ar    1  UNL1        0.1227
     18 N          67.2013   92.7161   12.6411 N.ar    1  UNL1       -0.2075
     19 C          66.3051   91.7898   13.4087 C.ar    1  UNL1        0.2393
     20 O          66.7568   91.2284   14.7243 O.3     1  UNL1       -0.4553
     21 C          67.7321   91.9919   15.5703 C.3     1  UNL1        0.2543
     22 C          64.5807   87.4303   14.6097 C.3     1  UNL1        0.0394
     23 C          64.4868   86.0249   15.1256 C.3     1  UNL1        0.0765
     24 N          63.2917   85.5978   15.9252 N.3     1  UNL1       -0.2700
     25 C          62.4781   84.4169   15.4853 C.3     1  UNL1        0.0897
     26 C          62.9103   86.3516   17.1647 C.3     1  UNL1        0.0897
@<TRIPOS>BOND
     1    10    11    1
     2    11     1    1
     3     1     2   ar
     4     2     3   ar
     5     3     4   ar
     6     4     5   ar
     7     5     6   ar
     8     5     7    1
     9     7     8    1
    10     8    22    1
    11    22    23    1
    12    23    24    1
    13    24    25    1
    14    24    26    1
    15     8     9    2
    16     9    12    1
    17    12    13    1
    18    12    14    1
    19    14    15   ar
    20    15    16   ar
    21    16    17   ar
    22    17    18   ar
    23    18    19   ar
    24    19    20    1
    25    20    21    1
    26     6     1   ar
    27    19    14   ar
    28     9     4    1
@<TRIPOS>MOLECULE
*****
 26 28 0 0 0
SMALL
GASTEIGER

@<TRIPOS>ATOM
      1 C          61.1225   87.3222    9.3071 C.ar    1  UNL1        0.1384
      2 C          61.4604   85.9601    9.8365 C.ar    1  UNL1        0.0369
      3 C          62.2695   85.8229   11.0921 C.ar    1  UNL1        0.0025
      4 C          62.7407   87.0479   11.8183 C.ar    1  UNL1       -0.0077
      5 C          62.4028   88.4100   11.2889 C.ar    1  UNL1       -0.0154
      6 C          61.5937   88.5472   10.0333 C.ar    1  UNL1        0.0329
      7 C          63.0015   89.4283   12.2135 C.3     1  UNL1        0.0481
      8 C          63.7093   88.6955   13.3143 C.2     1  UNL1       -0.0421
      9 C          63.5481   87.2243   13.0701 C.2     1  UNL1       -0.0245
     10 C          59.0327   86.6939    7.8972 C.3     1  UNL1        0.2525
     11 O          60.3134   87.4594    8.0515 O.3     1  UNL1       -0.4714
     12 C          64.0979   86.1228   13.9271 C.3     1  UNL1        0.0666
     13 C          65.0698   86.4405   15.0246 C.3     1  UNL1        0.0112
     14 C          63.6759   84.7037   13.6867 C.ar    1  UNL1        0.1156
     15 N          64.4299   83.8524   12.7085 N.ar    1  UNL1       -0.2415
     16 C          64.0079   82.4332   12.4681 C.ar    1  UNL1        0.1193
     17 C          62.8318   81.8652   13.2059 C.ar    1  UNL1        0.1227
     18 N          62.0778   82.7164   14.1841 N.ar    1  UNL1       -0.2075
     19 C          62.4998   84.1357   14.4245 C.ar    1  UNL1        0.2393
     20 O          61.7458   84.9869   15.4027 O.3     1  UNL1       -0.4553
     21 C          62.3174   85.2503   16.7643 C.3     1  UNL1        0.2543
     22 C          64.4485   89.3235   14.4585 C.3     1  UNL1        0.0394
     23 C          64.2134   90.7644   14.8028 C.3     1  UNL1        0.0765
     24 N          65.2253   91.8024   14.4175 N.3     1  UNL1       -0.2700
     25 C          66.0568   92.4677   15.4739 C.3     1  UNL1        0.0897
     26 C          65.4058   92.1750   12.9758 C.3     1  UNL1        0.0897
@<TRIPOS>BOND
     1    10    11    1
     2    11     1    1
     3     1     2   ar
     4     2     3   ar
     5     3     4   ar
     6     4     5   ar
     7     5     6   ar
     8     5     7    1
     9     7     8    1
    10     8    22    1
    11    22    23    1
    12    23    24    1
    13    24    25    1
    14    24    26    1
    15     8     9    2
    16     9    12    1
    17    12    13    1
    18    12    14    1
    19    14    15   ar
    20    15    16   ar
    21    16    17   ar
    22    17    18   ar
    23    18    19   ar
    24    19    20    1
    25    20    21    1
    26     6     1   ar
    27    19    14   ar
    28     9     4    1
@<TRIPOS>MOLECULE
*****
 26 28 0 0 0
SMALL
GASTEIGER

@<TRIPOS>ATOM
      1 C          63.7956   84.0848   14.0743 C.ar    1  UNL1        0.1384
      2 C          63.1369   84.2562   12.7377 C.ar    1  UNL1        0.0369
      3 C          62.9433   85.6301   12.1677 C.ar    1  UNL1        0.0025
      4 C          63.4084   86.8326   12.9343 C.ar    1  UNL1       -0.0077
      5 C          64.0672   86.6611   14.2709 C.ar    1  UNL1       -0.0154
      6 C          64.2608   85.2872   14.8409 C.ar    1  UNL1        0.0329
      7 C          64.4199   88.0228   14.7920 C.3     1  UNL1        0.0481
      8 C          63.9791   89.0358   13.7773 C.2     1  UNL1       -0.0421
      9 C          63.3540   88.3002   12.6292 C.2     1  UNL1       -0.0245
     10 C          63.5318   81.5079   13.8739 C.3     1  UNL1        0.2525
     11 O          63.9892   82.7109   14.6444 O.3     1  UNL1       -0.4714
     12 C          62.7759   88.9229   11.3931 C.3     1  UNL1        0.0666
     13 C          63.1072   90.3435   11.0437 C.3     1  UNL1        0.0112
     14 C          61.8666   88.1250   10.5062 C.ar    1  UNL1        0.1156
     15 N          62.4398   87.3001    9.3922 N.ar    1  UNL1       -0.2415
     16 C          61.5306   86.5022    8.5053 C.ar    1  UNL1        0.1193
     17 C          60.0481   86.5291    8.7324 C.ar    1  UNL1        0.1227
     18 N          59.4749   87.3539    9.8464 N.ar    1  UNL1       -0.2075
     19 C          60.3842   88.1519   10.7334 C.ar    1  UNL1        0.2393
     20 O          59.8110   88.9767   11.8474 O.3     1  UNL1       -0.4553
     21 C          59.3731   90.3876   11.5873 C.3     1  UNL1        0.2543
     22 C          64.1359   90.5233   13.8908 C.3     1  UNL1        0.0394
     23 C          65.4539   91.1093   14.3023 C.3     1  UNL1        0.0765
     24 N          65.8758   92.4494   13.7768 N.3     1  UNL1       -0.2700
     25 C          66.6322   93.3971   14.6598 C.3     1  UNL1        0.0897
     26 C          65.5412   92.8417   12.3682 C.3     1  UNL1        0.0897
@<TRIPOS>BOND
     1    10    11    1
     2    11     1    1
     3     1     2   ar
     4     2     3   ar
     5     3     4   ar
     6     4     5   ar
     7     5     6   ar
     8     5     7    1
     9     7     8    1
    10     8    22    1
    11    22    23    1
    12    23    24    1
    13    24    25    1
    14    24    26    1
    15     8     9    2
    16     9    12    1
    17    12    13    1
    18    12    14    1
    19    14    15   ar
    20    15    16   ar
    21    16    17   ar
    22    17    18   ar
    23    18    19   ar
    24    19    20    1
    25    20    21    1
    26     6     1   ar
    27    19    14   ar
    28     9     4    1
@<TRIPOS>MOLECULE
*****
 26 28 0 0 0
SMALL
GASTEIGER

@<TRIPOS>ATOM
      1 C          61.3376   88.1171    9.8412 C.ar    1  UNL1        0.1384
      2 C          62.0889   89.0385   10.7558 C.ar    1  UNL1        0.0369
      3 C          62.8589   88.4803   11.9157 C.ar    1  UNL1        0.0025
      4 C          62.8776   87.0006   12.1611 C.ar    1  UNL1       -0.0077
      5 C          62.1263   86.0792   11.2465 C.ar    1  UNL1       -0.0154
      6 C          61.3563   86.6374   10.0866 C.ar    1  UNL1        0.0329
      7 C          62.3272   84.6754   11.7355 C.3     1  UNL1        0.0481
      8 C          63.2027   84.7293   12.9523 C.2     1  UNL1       -0.0421
      9 C          63.5428   86.1664   13.2153 C.2     1  UNL1       -0.0245
     10 C          59.5318   87.8352    7.9947 C.3     1  UNL1        0.2525
     11 O          60.5676   88.6753    8.6813 O.3     1  UNL1       -0.4714
     12 C          64.3981   86.6791   14.3359 C.3     1  UNL1        0.0666
     13 C          65.5190   85.8373   14.8696 C.3     1  UNL1        0.0112
     14 C          64.1325   88.0337   14.9228 C.ar    1  UNL1        0.1156
     15 N          64.7583   89.2520   14.3110 N.ar    1  UNL1       -0.2415
     16 C          64.4928   90.6067   14.8979 C.ar    1  UNL1        0.1193
     17 C          63.6013   90.7431   16.0965 C.ar    1  UNL1        0.1227
     18 N          62.9754   89.5249   16.7083 N.ar    1  UNL1       -0.2075
     19 C          63.2410   88.1702   16.1214 C.ar    1  UNL1        0.2393
     20 O          62.6151   86.9520   16.7332 O.3     1  UNL1       -0.4553
     21 C          62.7162   86.7190   18.2115 C.3     1  UNL1        0.2543
     22 C          63.6581   83.5527   13.7637 C.3     1  UNL1        0.0394
     23 C          62.6489   82.6677   14.4334 C.3     1  UNL1        0.0765
     24 N          62.0845   81.4863   13.7016 N.3     1  UNL1       -0.2700
     25 C          60.7717   80.8980   14.1264 C.3     1  UNL1        0.0897
     26 C          62.8330   80.8931   12.5449 C.3     1  UNL1        0.0897
@<TRIPOS>BOND
     1    10    11    1
     2    11     1    1
     3     1     2   ar
     4     2     3   ar
     5     3     4   ar
     6     4     5   ar
     7     5     6   ar
     8     5     7    1
     9     7     8    1
    10     8    22    1
    11    22    23    1
    12    23    24    1
    13    24    25    1
    14    24    26    1
    15     8     9    2
    16     9    12    1
    17    12    13    1
    18    12    14    1
    19    14    15   ar
    20    15    16   ar
    21    16    17   ar
    22    17    18   ar
    23    18    19   ar
    24    19    20    1
    25    20    21    1
    26     6     1   ar
    27    19    14   ar
    28     9     4    1
@<TRIPOS>MOLECULE
*****
 26 28 0 0 0
SMALL
GASTEIGER

@<TRIPOS>ATOM
      1 C          62.3167   89.7111   10.9172 C.ar    1  UNL1        0.1384
      2 C          62.9081   90.8155   10.0924 C.ar    1  UNL1        0.0369
      3 C          63.9526   91.7158   10.6828 C.ar    1  UNL1        0.0025
      4 C          64.4057   91.5116   12.0981 C.ar    1  UNL1       -0.0077
      5 C          63.8143   90.4071   12.9229 C.ar    1  UNL1       -0.0154
      6 C          62.7698   89.5069   12.3325 C.ar    1  UNL1        0.0329
      7 C          64.4538   90.4480   14.2792 C.3     1  UNL1        0.0481
      8 C          65.4405   91.5777   14.2925 C.2     1  UNL1       -0.0421
      9 C          65.4107   92.2350   12.9445 C.2     1  UNL1       -0.0245
     10 C          59.9286   88.6899   10.9826 C.3     1  UNL1        0.2525
     11 O          61.2722   88.8109   10.3268 O.3     1  UNL1       -0.4714
     12 C          66.2404   93.4096   12.5179 C.3     1  UNL1        0.0666
     13 C          66.4303   94.5710   13.4479 C.3     1  UNL1        0.0112
     14 C          66.8801   93.4228   11.1612 C.ar    1  UNL1        0.1156
     15 N          67.9618   92.4369   10.8325 N.ar    1  UNL1       -0.2415
     16 C          68.6016   92.4500    9.4758 C.ar    1  UNL1        0.1193
     17 C          68.1598   93.4490    8.4479 C.ar    1  UNL1        0.1227
     18 N          67.0781   94.4349    8.7765 N.ar    1  UNL1       -0.2075
     19 C          66.4382   94.4218   10.1333 C.ar    1  UNL1        0.2393
     20 O          65.3565   95.4076   10.4619 O.3     1  UNL1       -0.4553
     21 C          65.6961   96.8551   10.6603 C.3     1  UNL1        0.2543
     22 C          66.3051   91.9796   15.4505 C.3     1  UNL1        0.0394
     23 C          67.7508   91.5806   15.4810 C.3     1  UNL1        0.0765
     24 N          68.8122   92.5801   15.1286 N.3     1  UNL1       -0.2700
     25 C          69.7116   92.3361   13.9532 C.3     1  UNL1        0.0897
     26 C          68.9743   93.8237   15.9516 C.3     1  UNL1        0.0897
@<TRIPOS>BOND
     1    10    11    1
     2    11     1    1
     3     1     2   ar
     4     2     3   ar
     5     3     4   ar
     6     4     5   ar
     7     5     6   ar
     8     5     7    1
     9     7     8    1
    10     8    22    1
    11    22    23    1
    12    23    24    1
    13    24    25    1
    14    24    26    1
    15     8     9    2
    16     9    12    1
    17    12    13    1
    18    12    14    1
    19    14    15   ar
    20    15    16   ar
    21    16    17   ar
    22    17    18   ar
    23    18    19   ar
    24    19    20    1
    25    20    21    1
    26     6     1   ar
    27    19    14   ar
    28     9     4    1
@<TRIPOS>MOLECULE
*****
 26 28 0 0 0
SMALL
GASTEIGER

@<TRIPOS>ATOM
      1 C          61.7157   90.3923   10.7761 C.ar    1  UNL1        0.1384
      2 C          62.7355   91.0511    9.8953 C.ar    1  UNL1        0.0369
      3 C          64.0186   91.5589   10.4834 C.ar    1  UNL1        0.0025
      4 C          64.2819   91.4080   11.9523 C.ar    1  UNL1       -0.0077
      5 C          63.2621   90.7492   12.8332 C.ar    1  UNL1       -0.0154
      6 C          61.9790   90.2413   12.2451 C.ar    1  UNL1        0.0329
      7 C          63.7960   90.7415   14.2350 C.3     1  UNL1        0.0481
      8 C          65.1458   91.3956   14.2204 C.2     1  UNL1       -0.0421
      9 C          65.4461   91.8075   12.8096 C.2     1  UNL1       -0.0245
     10 C          60.4640   88.8999    9.0568 C.3     1  UNL1        0.2525
     11 O          60.4327   89.8844   10.1881 O.3     1  UNL1       -0.4714
     12 C          66.6918   92.4977   12.3389 C.3     1  UNL1        0.0666
     13 C          68.0348   91.8842   12.6034 C.3     1  UNL1        0.0112
     14 C          66.5947   93.8015   11.6035 C.ar    1  UNL1        0.1156
     15 N          66.1477   95.0381   12.3253 N.ar    1  UNL1       -0.2415
     16 C          66.0505   96.3419   11.5900 C.ar    1  UNL1        0.1193
     17 C          66.4003   96.4091   10.1329 C.ar    1  UNL1        0.1227
     18 N          66.8473   95.1725    9.4111 N.ar    1  UNL1       -0.2075
     19 C          66.9445   93.8687   10.1464 C.ar    1  UNL1        0.2393
     20 O          67.3915   92.6320    9.4246 O.3     1  UNL1       -0.4553
     21 C          68.8359   92.4574    9.0596 C.3     1  UNL1        0.2543
     22 C          66.0386   91.6016   15.4081 C.3     1  UNL1        0.0394
     23 C          66.6130   92.9587   15.6881 C.3     1  UNL1        0.0765
     24 N          68.0774   93.1085   15.9761 N.3     1  UNL1       -0.2700
     25 C          68.7430   94.4418   15.8049 C.3     1  UNL1        0.0897
     26 C          68.8762   91.9249   16.4354 C.3     1  UNL1        0.0897
@<TRIPOS>BOND
     1    10    11    1
     2    11     1    1
     3     1     2   ar
     4     2     3   ar
     5     3     4   ar
     6     4     5   ar
     7     5     6   ar
     8     5     7    1
     9     7     8    1
    10     8    22    1
    11    22    23    1
    12    23    24    1
    13    24    25    1
    14    24    26    1
    15     8     9    2
    16     9    12    1
    17    12    13    1
    18    12    14    1
    19    14    15   ar
    20    15    16   ar
    21    16    17   ar
    22    17    18   ar
    23    18    19   ar
    24    19    20    1
    25    20    21    1
    26     6     1   ar
    27    19    14   ar
    28     9     4    1
@<TRIPOS>MOLECULE
*****
 26 28 0 0 0
SMALL
GASTEIGER

@<TRIPOS>ATOM
      1 C          61.4132   87.4481    9.9182 C.ar    1  UNL1        0.1384
      2 C          62.1133   88.2692   10.9601 C.ar    1  UNL1        0.0369
      3 C          62.8816   87.5929   12.0566 C.ar    1  UNL1        0.0025
      4 C          62.9498   86.0955   12.1112 C.ar    1  UNL1       -0.0077
      5 C          62.2498   85.2744   11.0693 C.ar    1  UNL1       -0.0154
      6 C          61.4815   85.9507    9.9728 C.ar    1  UNL1        0.0329
      7 C          62.4927   83.8270   11.3794 C.3     1  UNL1        0.0481
      8 C          63.3430   83.7536   12.6129 C.2     1  UNL1       -0.0421
      9 C          63.6255   85.1557   13.0652 C.2     1  UNL1       -0.0245
     10 C          59.4930   87.4200    8.1684 C.3     1  UNL1        0.2525
     11 O          60.6449   88.1244    8.8217 O.3     1  UNL1       -0.4714
     12 C          64.4406   85.5488   14.2615 C.3     1  UNL1        0.0666
     13 C          65.9037   85.2225   14.3123 C.3     1  UNL1        0.0112
     14 C          63.7925   86.2683   15.4070 C.ar    1  UNL1        0.1156
     15 N          63.0331   85.4959   16.4447 N.ar    1  UNL1       -0.2415
     16 C          62.3850   86.2153   17.5903 C.ar    1  UNL1        0.1193
     17 C          62.4963   87.7072   17.6983 C.ar    1  UNL1        0.1227
     18 N          63.2557   88.4798   16.6607 N.ar    1  UNL1       -0.2075
     19 C          63.9038   87.7603   15.5150 C.ar    1  UNL1        0.2393
     20 O          64.6632   88.5328   14.4775 O.3     1  UNL1       -0.4553
     21 C          64.6385   90.0325   14.4917 C.3     1  UNL1        0.2543
     22 C          63.8260   82.4986   13.2775 C.3     1  UNL1        0.0394
     23 C          62.9283   81.7578   14.2238 C.3     1  UNL1        0.0765
     24 N          61.9838   80.7163   13.7013 N.3     1  UNL1       -0.2700
     25 C          60.5504   80.7142   14.1436 C.3     1  UNL1        0.0897
     26 C          62.4725   79.6770   12.7366 C.3     1  UNL1        0.0897
@<TRIPOS>BOND
     1    10    11    1
     2    11     1    1
     3     1     2   ar
     4     2     3   ar
     5     3     4   ar
     6     4     5   ar
     7     5     6   ar
     8     5     7    1
     9     7     8    1
    10     8    22    1
    11    22    23    1
    12    23    24    1
    13    24    25    1
    14    24    26    1
    15     8     9    2
    16     9    12    1
    17    12    13    1
    18    12    14    1
    19    14    15   ar
    20    15    16   ar
    21    16    17   ar
    22    17    18   ar
    23    18    19   ar
    24    19    20    1
    25    20    21    1
    26     6     1   ar
    27    19    14   ar
    28     9     4    1
@<TRIPOS>MOLECULE
*****
 26 28 0 0 0
SMALL
GASTEIGER

@<TRIPOS>ATOM
      1 C          64.0118   85.0869   14.2607 C.ar    1  UNL1        0.1384
      2 C          64.5926   86.3402   14.8456 C.ar    1  UNL1        0.0369
      3 C          64.3473   87.6620   14.1803 C.ar    1  UNL1        0.0025
      4 C          63.5212   87.7306   12.9302 C.ar    1  UNL1       -0.0077
      5 C          62.9405   86.4774   12.3453 C.ar    1  UNL1       -0.0154
      6 C          63.1858   85.1555   13.0106 C.ar    1  UNL1        0.0329
      7 C          62.1727   86.8535   11.1128 C.3     1  UNL1        0.0481
      8 C          62.2789   88.3392   10.9359 C.2     1  UNL1       -0.0421
      9 C          63.1124   88.8813   12.0591 C.2     1  UNL1       -0.0245
     10 C          63.5201   82.5438   14.4622 C.3     1  UNL1        0.2525
     11 O          64.2571   83.7651   14.9260 O.3     1  UNL1       -0.4714
     12 C          63.4736   90.3213   12.2737 C.3     1  UNL1        0.0666
     13 C          63.4528   91.2796   11.1199 C.3     1  UNL1        0.0112
     14 C          63.8555   90.8029   13.6419 C.ar    1  UNL1        0.1156
     15 N          63.0298   90.4130   14.8319 N.ar    1  UNL1       -0.2415
     16 C          63.4116   90.8946   16.2002 C.ar    1  UNL1        0.1193
     17 C          64.6193   91.7662   16.3785 C.ar    1  UNL1        0.1227
     18 N          65.4451   92.1562   15.1886 N.ar    1  UNL1       -0.2075
     19 C          65.0632   91.6746   13.8202 C.ar    1  UNL1        0.2393
     20 O          65.8890   92.0646   12.6302 O.3     1  UNL1       -0.4553
     21 C          66.2521   93.5029   12.4083 C.3     1  UNL1        0.2543
     22 C          61.6604   89.1421    9.8300 C.3     1  UNL1        0.0394
     23 C          60.1939   89.0157    9.5413 C.3     1  UNL1        0.0765
     24 N          59.7314   88.2984    8.3078 N.3     1  UNL1       -0.2700
     25 C          59.3922   89.0760    7.0707 C.3     1  UNL1        0.0897
     26 C          59.6081   86.8035    8.3113 C.3     1  UNL1        0.0897
@<TRIPOS>BOND
     1    10    11    1
     2    11     1    1
     3     1     2   ar
     4     2     3   ar
     5     3     4   ar
     6     4     5   ar
     7     5     6   ar
     8     5     7    1
     9     7     8    1
    10     8    22    1
    11    22    23    1
    12    23    24    1
    13    24    25    1
    14    24    26    1
    15     8     9    2
    16     9    12    1
    17    12    13    1
    18    12    14    1
    19    14    15   ar
    20    15    16   ar
    21    16    17   ar
    22    17    18   ar
    23    18    19   ar
    24    19    20    1
    25    20    21    1
    26     6     1   ar
    27    19    14   ar
    28     9     4    1
@<TRIPOS>MOLECULE
*****
 26 28 0 0 0
SMALL
GASTEIGER

@<TRIPOS>ATOM
      1 C          60.8509   85.7287    7.6716 C.ar    1  UNL1        0.1384
      2 C          60.3332   87.1334    7.7647 C.ar    1  UNL1        0.0369
      3 C          60.6727   87.9806    8.9550 C.ar    1  UNL1        0.0025
      4 C          61.5300   87.4231   10.0524 C.ar    1  UNL1       -0.0077
      5 C          62.0477   86.0184    9.9593 C.ar    1  UNL1       -0.0154
      6 C          61.7082   85.1712    8.7690 C.ar    1  UNL1        0.0329
      7 C          62.8649   85.7433   11.1868 C.3     1  UNL1        0.0481
      8 C          62.8522   86.9780   12.0384 C.2     1  UNL1       -0.0421
      9 C          62.0272   88.0162   11.3373 C.2     1  UNL1       -0.0245
     10 C          61.6032   84.2079    5.7042 C.3     1  UNL1        0.2525
     11 O          60.5113   84.8815    6.4813 O.3     1  UNL1       -0.4714
     12 C          61.7483   89.4038   11.8339 C.3     1  UNL1        0.0666
     13 C          60.3410   89.8214   12.1423 C.3     1  UNL1        0.0112
     14 C          62.8767   90.3740   12.0221 C.ar    1  UNL1        0.1156
     15 N          63.5038   91.0354   10.8308 N.ar    1  UNL1       -0.2415
     16 C          64.6322   92.0056   11.0189 C.ar    1  UNL1        0.1193
     17 C          65.1335   92.3145   12.3985 C.ar    1  UNL1        0.1227
     18 N          64.5065   91.6531   13.5899 N.ar    1  UNL1       -0.2075
     19 C          63.3780   90.6829   13.4017 C.ar    1  UNL1        0.2393
     20 O          62.7510   90.0216   14.5931 O.3     1  UNL1       -0.4553
     21 C          63.5028   89.9415   15.8887 C.3     1  UNL1        0.2543
     22 C          63.5432   87.1452   13.3593 C.3     1  UNL1        0.0394
     23 C          64.0611   85.9433   14.0922 C.3     1  UNL1        0.0765
     24 N          63.2776   85.3658   15.2335 N.3     1  UNL1       -0.2700
     25 C          62.3987   84.1708   15.0111 C.3     1  UNL1        0.0897
     26 C          63.3731   85.9832   16.5972 C.3     1  UNL1        0.0897
@<TRIPOS>BOND
     1    10    11    1
     2    11     1    1
     3     1     2   ar
     4     2     3   ar
     5     3     4   ar
     6     4     5   ar
     7     5     6   ar
     8     5     7    1
     9     7     8    1
    10     8    22    1
    11    22    23    1
    12    23    24    1
    13    24    25    1
    14    24    26    1
    15     8     9    2
    16     9    12    1
    17    12    13    1
    18    12    14    1
    19    14    15   ar
    20    15    16   ar
    21    16    17   ar
    22    17    18   ar
    23    18    19   ar
    24    19    20    1
    25    20    21    1
    26     6     1   ar
    27    19    14   ar
    28     9     4    1
