@<TRIPOS>MOLECULE
*****
 36 39 0 0 0
SMALL
GASTEIGER

@<TRIPOS>ATOM
      1 N          62.3900   90.1166   10.5084 N.am    1  UNL1       -0.2627
      2 C          60.8915   90.1709   10.4709 C.2     1  UNL1        0.2478
      3 O          60.1176   90.4053   11.7343 O.2     1  UNL1       -0.2729
      4 H          62.8979   89.9628    9.6792 H       1  UNL1        0.1568
      5 C          63.8025   89.6571   15.5755 C.3     1  UNL1        0.0527
      6 C          63.7639   90.0855   14.1384 C.ar    1  UNL1        0.0673
      7 N          62.7868   89.6125   13.1034 N.ar    1  UNL1       -0.2283
      8 C          63.1147   90.2966   11.8094 C.ar    1  UNL1        0.1652
      9 S          64.2946   91.1925   12.0448 S.2     1  UNL1       -0.0517
     10 C          64.6959   91.0620   13.4842 C.ar    1  UNL1        0.0471
     11 C          65.8299   91.7816   14.1521 C.ar    1  UNL1        0.0265
     12 C          65.7106   92.2007   15.5874 C.ar    1  UNL1        0.0049
     13 C          66.8446   92.9203   16.2553 C.ar    1  UNL1        0.0339
     14 C          68.0979   93.2209   15.4878 C.ar    1  UNL1        0.1254
     15 N          69.2319   93.9405   16.1557 N.pl3   1  UNL1       -0.3426
     16 N          68.2172   92.8018   14.0525 N.ar    1  UNL1       -0.2296
     17 C          67.0832   92.0822   13.3846 C.ar    1  UNL1        0.1008
     18 H          69.1537   94.2155   17.0978 H       1  UNL1        0.1437
     19 H          70.0545   94.1378   15.6521 H       1  UNL1        0.1437
     20 C          60.1669   89.9909    9.1700 C.3     1  UNL1        0.1799
     21 N          59.7042   88.6267    8.7517 N.am    1  UNL1       -0.2636
     22 C          59.1493   88.4124    7.3747 C.2     1  UNL1        0.2497
     23 O          58.6867   87.0482    6.9564 O.2     1  UNL1       -0.2699
     24 C          59.0571   89.5623    6.4159 C.ar    1  UNL1        0.0567
     25 C          57.7208   90.1594    6.0873 C.ar    1  UNL1        0.0252
     26 C          57.6285   91.3093    5.1286 C.ar    1  UNL1        0.0990
     27 N          58.8725   91.8621    4.4984 N.ar    1  UNL1       -0.2423
     28 C          60.2087   91.2650    4.8270 C.ar    1  UNL1        0.0990
     29 C          60.3010   90.1151    5.7858 C.ar    1  UNL1        0.0252
     30 C          59.7965   87.4768    9.7104 C.3     1  UNL1        0.1209
     31 C          60.9706   86.5450    9.6533 C.ar    1  UNL1       -0.0023
     32 C          61.6543   86.2793    8.3449 C.ar    1  UNL1       -0.0026
     33 C          62.8285   85.3475    8.2878 C.ar    1  UNL1       -0.0003
     34 C          63.3189   84.6815    9.5392 C.ar    1  UNL1       -0.0000
     35 C          62.6352   84.9472   10.8476 C.ar    1  UNL1       -0.0003
     36 C          61.4611   85.8789   10.9047 C.ar    1  UNL1       -0.0026
@<TRIPOS>BOND
     1     5     6    1
     2     6     7   ar
     3     7     8   ar
     4     8     1    1
     5     1     2   am
     6     2     3    2
     7     2    20    1
     8    20    21    1
     9    21    30    1
    10    30    31    1
    11    31    32   ar
    12    32    33   ar
    13    33    34   ar
    14    34    35   ar
    15    35    36   ar
    16    21    22   am
    17    22    23    2
    18    22    24    1
    19    24    25   ar
    20    25    26   ar
    21    26    27   ar
    22    27    28   ar
    23    28    29   ar
    24     8     9   ar
    25     9    10   ar
    26    10    11    1
    27    11    12   ar
    28    12    13   ar
    29    13    14   ar
    30    14    15    1
    31    14    16   ar
    32    16    17   ar
    33    10     6   ar
    34    17    11   ar
    35    36    31   ar
    36    29    24   ar
    37     1     4    1
    38    15    18    1
    39    15    19    1
@<TRIPOS>MOLECULE
*****
 36 39 0 0 0
SMALL
GASTEIGER

@<TRIPOS>ATOM
      1 N          62.4467   88.4731   12.4118 N.am    1  UNL1       -0.2627
      2 C          62.5802   86.9814   12.4948 C.2     1  UNL1        0.2478
      3 O          63.4271   86.3627   13.5671 O.2     1  UNL1       -0.2729
      4 H          61.8909   88.8792   11.7079 H       1  UNL1        0.1568
      5 C          63.5951   91.2241   16.7700 C.3     1  UNL1        0.0527
      6 C          63.6881   90.6107   15.4044 C.ar    1  UNL1        0.0673
      7 N          62.6572   89.7316   14.7607 N.ar    1  UNL1       -0.2283
      8 C          63.1602   89.3462   13.4011 C.ar    1  UNL1        0.1652
      9 S          64.5021   89.9872   13.2046 S.2     1  UNL1       -0.0517
     10 C          64.8284   90.7686   14.4426 C.ar    1  UNL1        0.0471
     11 C          66.0758   91.5678   14.6777 C.ar    1  UNL1        0.0265
     12 C          66.2498   92.3267   15.9598 C.ar    1  UNL1        0.0049
     13 C          67.4972   93.1259   16.1948 C.ar    1  UNL1        0.0339
     14 C          68.5706   93.1660   15.1478 C.ar    1  UNL1        0.1254
     15 N          69.8181   93.9652   15.3829 N.pl3   1  UNL1       -0.3426
     16 N          68.3966   92.4071   13.8658 N.ar    1  UNL1       -0.2296
     17 C          67.1492   91.6080   13.6307 C.ar    1  UNL1        0.1008
     18 H          69.9323   94.4633   16.2244 H       1  UNL1        0.1437
     19 H          70.5226   93.9915   14.6957 H       1  UNL1        0.1437
     20 C          61.8667   86.1085   11.5054 C.3     1  UNL1        0.1799
     21 N          62.6450   85.3781   10.4514 N.am    1  UNL1       -0.2636
     22 C          62.3410   85.6076    9.0006 C.2     1  UNL1        0.2497
     23 O          63.1193   84.8773    7.9465 O.2     1  UNL1       -0.2699
     24 C          61.2586   86.5673    8.6037 C.ar    1  UNL1        0.0567
     25 C          61.3390   88.0046    9.0255 C.ar    1  UNL1        0.0252
     26 C          60.2567   88.9643    8.6287 C.ar    1  UNL1        0.0990
     27 N          59.0940   88.4868    7.8100 N.ar    1  UNL1       -0.2423
     28 C          59.0136   87.0496    7.3883 C.ar    1  UNL1        0.0990
     29 C          60.0959   86.0898    7.7851 C.ar    1  UNL1        0.0252
     30 C          63.7273   84.4184   10.8482 C.3     1  UNL1        0.1209
     31 C          63.3693   83.0844   11.4333 C.ar    1  UNL1       -0.0023
     32 C          63.3858   81.8580   10.5698 C.ar    1  UNL1       -0.0026
     33 C          63.0278   80.5240   11.1549 C.ar    1  UNL1       -0.0003
     34 C          62.6534   80.4164   12.6034 C.ar    1  UNL1       -0.0000
     35 C          62.6370   81.6429   13.4669 C.ar    1  UNL1       -0.0003
     36 C          62.9949   82.9768   12.8819 C.ar    1  UNL1       -0.0026
@<TRIPOS>BOND
     1     5     6    1
     2     6     7   ar
     3     7     8   ar
     4     8     1    1
     5     1     2   am
     6     2     3    2
     7     2    20    1
     8    20    21    1
     9    21    30    1
    10    30    31    1
    11    31    32   ar
    12    32    33   ar
    13    33    34   ar
    14    34    35   ar
    15    35    36   ar
    16    21    22   am
    17    22    23    2
    18    22    24    1
    19    24    25   ar
    20    25    26   ar
    21    26    27   ar
    22    27    28   ar
    23    28    29   ar
    24     8     9   ar
    25     9    10   ar
    26    10    11    1
    27    11    12   ar
    28    12    13   ar
    29    13    14   ar
    30    14    15    1
    31    14    16   ar
    32    16    17   ar
    33    10     6   ar
    34    17    11   ar
    35    36    31   ar
    36    29    24   ar
    37     1     4    1
    38    15    18    1
    39    15    19    1
@<TRIPOS>MOLECULE
*****
 36 39 0 0 0
SMALL
GASTEIGER

@<TRIPOS>ATOM
      1 N          64.0153   88.9222   13.1529 N.am    1  UNL1       -0.2627
      2 C          63.2594   90.0862   13.7219 C.2     1  UNL1        0.2478
      3 O          62.3792   89.8948   14.9213 O.2     1  UNL1       -0.2729
      4 H          64.5930   89.0479   12.3657 H       1  UNL1        0.1568
      5 C          63.9463   85.0302   16.7205 C.3     1  UNL1        0.0527
      6 C          63.8591   85.7778   15.4230 C.ar    1  UNL1        0.0673
      7 N          64.0762   87.2504   15.2377 N.ar    1  UNL1       -0.2283
      8 C          63.8908   87.5667   13.7832 C.ar    1  UNL1        0.1652
      9 S          63.5592   86.2897   13.0696 S.2     1  UNL1       -0.0517
     10 C          63.5396   85.1840   14.0831 C.ar    1  UNL1        0.0471
     11 C          63.2511   83.7385   13.8054 C.ar    1  UNL1        0.0265
     12 C          62.1398   83.0422   14.5336 C.ar    1  UNL1        0.0049
     13 C          61.8513   81.5966   14.2559 C.ar    1  UNL1        0.0339
     14 C          62.6741   80.8474   13.2500 C.ar    1  UNL1        0.1254
     15 N          62.3856   79.4018   12.9724 N.pl3   1  UNL1       -0.3426
     16 N          63.7854   81.5437   12.5219 N.ar    1  UNL1       -0.2296
     17 C          64.0739   82.9892   12.7996 C.ar    1  UNL1        0.1008
     18 H          61.6562   78.9448   13.4503 H       1  UNL1        0.1437
     19 H          62.9256   78.9101   12.3122 H       1  UNL1        0.1437
     20 C          63.3839   91.4416   13.0916 C.3     1  UNL1        0.1799
     21 N          64.0838   91.5945   11.7736 N.am    1  UNL1       -0.2636
     22 C          65.5063   92.0683   11.7304 C.2     1  UNL1        0.2497
     23 O          66.2061   92.2212   10.4124 O.2     1  UNL1       -0.2699
     24 C          66.2290   92.3894   13.0050 C.ar    1  UNL1        0.0567
     25 C          66.7481   91.2811   13.8724 C.ar    1  UNL1        0.0252
     26 C          67.4708   91.6021   15.1470 C.ar    1  UNL1        0.0990
     27 N          67.6744   93.0314   15.5542 N.ar    1  UNL1       -0.2423
     28 C          67.1553   94.1396   14.6868 C.ar    1  UNL1        0.0990
     29 C          66.4326   93.8185   13.4122 C.ar    1  UNL1        0.0252
     30 C          63.3611   91.2735   10.4990 C.3     1  UNL1        0.1209
     31 C          62.2682   90.2461   10.4948 C.ar    1  UNL1       -0.0023
     32 C          60.8813   90.6245   10.9231 C.ar    1  UNL1       -0.0026
     33 C          59.7885   89.5970   10.9188 C.ar    1  UNL1       -0.0003
     34 C          60.0825   88.1912   10.4864 C.ar    1  UNL1       -0.0000
     35 C          61.4693   87.8127   10.0581 C.ar    1  UNL1       -0.0003
     36 C          62.5622   88.8401   10.0623 C.ar    1  UNL1       -0.0026
@<TRIPOS>BOND
     1     5     6    1
     2     6     7   ar
     3     7     8   ar
     4     8     1    1
     5     1     2   am
     6     2     3    2
     7     2    20    1
     8    20    21    1
     9    21    30    1
    10    30    31    1
    11    31    32   ar
    12    32    33   ar
    13    33    34   ar
    14    34    35   ar
    15    35    36   ar
    16    21    22   am
    17    22    23    2
    18    22    24    1
    19    24    25   ar
    20    25    26   ar
    21    26    27   ar
    22    27    28   ar
    23    28    29   ar
    24     8     9   ar
    25     9    10   ar
    26    10    11    1
    27    11    12   ar
    28    12    13   ar
    29    13    14   ar
    30    14    15    1
    31    14    16   ar
    32    16    17   ar
    33    10     6   ar
    34    17    11   ar
    35    36    31   ar
    36    29    24   ar
    37     1     4    1
    38    15    18    1
    39    15    19    1
@<TRIPOS>MOLECULE
*****
 36 39 0 0 0
SMALL
GASTEIGER

@<TRIPOS>ATOM
      1 N          63.5547   89.5574   13.0884 N.am    1  UNL1       -0.2627
      2 C          62.9940   88.9681   11.8282 C.2     1  UNL1        0.2478
      3 O          63.2862   89.6111   10.5049 O.2     1  UNL1       -0.2729
      4 H          63.3629   89.1353   13.9570 H       1  UNL1        0.1568
      5 C          66.6296   93.6137   14.4929 C.3     1  UNL1        0.0527
      6 C          65.8210   92.6542   13.6710 C.ar    1  UNL1        0.0673
      7 N          65.0722   91.4625   14.1898 N.ar    1  UNL1       -0.2283
      8 C          64.4077   90.7897   13.0254 C.ar    1  UNL1        0.1652
      9 S          64.7458   91.5655   11.7870 S.2     1  UNL1       -0.0517
     10 C          65.6193   92.7179   12.1859 C.ar    1  UNL1        0.0471
     11 C          66.1908   93.7522   11.2621 C.ar    1  UNL1        0.0265
     12 C          67.0294   93.3313   10.0919 C.ar    1  UNL1        0.0049
     13 C          67.6009   94.3656    9.1680 C.ar    1  UNL1        0.0339
     14 C          67.3337   95.8209    9.4144 C.ar    1  UNL1        0.1254
     15 N          67.9051   96.8553    8.4906 N.pl3   1  UNL1       -0.3426
     16 N          66.4950   96.2419   10.5846 N.ar    1  UNL1       -0.2296
     17 C          65.9236   95.2075   11.5084 C.ar    1  UNL1        0.1008
     18 H          68.4556   96.5790    7.7225 H       1  UNL1        0.1437
     19 H          67.7298   97.8105    8.6523 H       1  UNL1        0.1437
     20 C          62.1411   87.7358   11.8912 C.3     1  UNL1        0.1799
     21 N          62.5436   86.5055   11.1333 N.am    1  UNL1       -0.2636
     22 C          63.0573   85.3047   11.8711 C.2     1  UNL1        0.2497
     23 O          63.4598   84.0744   11.1132 O.2     1  UNL1       -0.2699
     24 C          63.1685   85.3342   13.3666 C.ar    1  UNL1        0.0567
     25 C          64.1603   86.2453   14.0272 C.ar    1  UNL1        0.0252
     26 C          64.2714   86.2748   15.5228 C.ar    1  UNL1        0.0990
     27 N          63.3908   85.3932   16.3578 N.ar    1  UNL1       -0.2423
     28 C          62.3990   84.4821   15.6973 C.ar    1  UNL1        0.0990
     29 C          62.2879   84.4526   14.2017 C.ar    1  UNL1        0.0252
     30 C          62.4325   86.4760    9.6377 C.3     1  UNL1        0.1209
     31 C          61.2092   87.0252    8.9656 C.ar    1  UNL1       -0.0023
     32 C          60.9703   88.5058    8.9365 C.ar    1  UNL1       -0.0026
     33 C          59.7469   89.0550    8.2644 C.ar    1  UNL1       -0.0003
     34 C          58.7625   88.1237    7.6213 C.ar    1  UNL1       -0.0000
     35 C          59.0014   86.6431    7.6504 C.ar    1  UNL1       -0.0003
     36 C          60.2247   86.0939    8.3225 C.ar    1  UNL1       -0.0026
@<TRIPOS>BOND
     1     5     6    1
     2     6     7   ar
     3     7     8   ar
     4     8     1    1
     5     1     2   am
     6     2     3    2
     7     2    20    1
     8    20    21    1
     9    21    30    1
    10    30    31    1
    11    31    32   ar
    12    32    33   ar
    13    33    34   ar
    14    34    35   ar
    15    35    36   ar
    16    21    22   am
    17    22    23    2
    18    22    24    1
    19    24    25   ar
    20    25    26   ar
    21    26    27   ar
    22    27    28   ar
    23    28    29   ar
    24     8     9   ar
    25     9    10   ar
    26    10    11    1
    27    11    12   ar
    28    12    13   ar
    29    13    14   ar
    30    14    15    1
    31    14    16   ar
    32    16    17   ar
    33    10     6   ar
    34    17    11   ar
    35    36    31   ar
    36    29    24   ar
    37     1     4    1
    38    15    18    1
    39    15    19    1
@<TRIPOS>MOLECULE
*****
 36 39 0 0 0
SMALL
GASTEIGER

@<TRIPOS>ATOM
      1 N          62.7732   89.5144   12.4697 N.am    1  UNL1       -0.2627
      2 C          63.4918   90.6456   11.7960 C.2     1  UNL1        0.2478
      3 O          64.0556   90.4615   10.4182 O.2     1  UNL1       -0.2729
      4 H          62.4032   89.6353   13.3739 H       1  UNL1        0.1568
      5 C          62.5762   84.3264   11.5067 C.3     1  UNL1        0.0527
      6 C          62.5278   85.8143   11.3229 C.ar    1  UNL1        0.0673
      7 N          62.7664   86.8426   12.3887 N.ar    1  UNL1       -0.2283
      8 C          62.6184   88.1990   11.7655 C.ar    1  UNL1        0.1652
      9 S          62.2882   88.0090   10.3147 S.2     1  UNL1       -0.0517
     10 C          62.2323   86.5352   10.0411 C.ar    1  UNL1        0.0471
     11 C          61.9333   85.8948    8.7181 C.ar    1  UNL1        0.0265
     12 C          63.0194   85.1840    7.9664 C.ar    1  UNL1        0.0049
     13 C          62.7204   84.5436    6.6434 C.ar    1  UNL1        0.0339
     14 C          61.3353   84.6140    6.0720 C.ar    1  UNL1        0.1254
     15 N          61.0363   83.9735    4.7490 N.pl3   1  UNL1       -0.3426
     16 N          60.2491   85.3248    6.8237 N.ar    1  UNL1       -0.2296
     17 C          60.5481   85.9652    8.1467 C.ar    1  UNL1        0.1008
     18 H          61.7491   83.5070    4.2556 H       1  UNL1        0.1437
     19 H          60.1272   84.0197    4.3740 H       1  UNL1        0.1437
     20 C          63.6466   91.9610   12.5001 C.3     1  UNL1        0.1799
     21 N          64.9864   92.3723   13.0348 N.am    1  UNL1       -0.2636
     22 C          65.5764   91.6547   14.2124 C.2     1  UNL1        0.2497
     23 O          66.9162   92.0660   14.7472 O.2     1  UNL1       -0.2699
     24 C          64.8267   90.5257   14.8553 C.ar    1  UNL1        0.0567
     25 C          65.1109   89.1097   14.4499 C.ar    1  UNL1        0.0252
     26 C          64.3612   87.9807   15.0928 C.ar    1  UNL1        0.0990
     27 N          63.3274   88.2677   16.1412 N.ar    1  UNL1       -0.2423
     28 C          63.0433   89.6836   16.5465 C.ar    1  UNL1        0.0990
     29 C          63.7930   90.8126   15.9036 C.ar    1  UNL1        0.0252
     30 C          65.7361   93.5013   12.3919 C.3     1  UNL1        0.1209
     31 C          66.6264   93.2360   11.2143 C.ar    1  UNL1       -0.0023
     32 C          67.5146   92.0273   11.2028 C.ar    1  UNL1       -0.0026
     33 C          68.4049   91.7620   10.0251 C.ar    1  UNL1       -0.0003
     34 C          68.4071   92.7054    8.8589 C.ar    1  UNL1       -0.0000
     35 C          67.5189   93.9141    8.8704 C.ar    1  UNL1       -0.0003
     36 C          66.6286   94.1794   10.0481 C.ar    1  UNL1       -0.0026
@<TRIPOS>BOND
     1     5     6    1
     2     6     7   ar
     3     7     8   ar
     4     8     1    1
     5     1     2   am
     6     2     3    2
     7     2    20    1
     8    20    21    1
     9    21    30    1
    10    30    31    1
    11    31    32   ar
    12    32    33   ar
    13    33    34   ar
    14    34    35   ar
    15    35    36   ar
    16    21    22   am
    17    22    23    2
    18    22    24    1
    19    24    25   ar
    20    25    26   ar
    21    26    27   ar
    22    27    28   ar
    23    28    29   ar
    24     8     9   ar
    25     9    10   ar
    26    10    11    1
    27    11    12   ar
    28    12    13   ar
    29    13    14   ar
    30    14    15    1
    31    14    16   ar
    32    16    17   ar
    33    10     6   ar
    34    17    11   ar
    35    36    31   ar
    36    29    24   ar
    37     1     4    1
    38    15    18    1
    39    15    19    1
@<TRIPOS>MOLECULE
*****
 36 39 0 0 0
SMALL
GASTEIGER

@<TRIPOS>ATOM
      1 N          62.7124   89.2865   12.5360 N.am    1  UNL1       -0.2627
      2 C          63.4281   90.4467   11.9102 C.2     1  UNL1        0.2478
      3 O          64.0077   90.3159   10.5329 O.2     1  UNL1       -0.2729
      4 H          62.3320   89.3724   13.4400 H       1  UNL1        0.1568
      5 C          62.5929   84.1348   11.3842 C.3     1  UNL1        0.0527
      6 C          62.5213   85.6275   11.2551 C.ar    1  UNL1        0.0673
      7 N          62.7463   86.6197   12.3573 N.ar    1  UNL1       -0.2283
      8 C          62.5762   87.9955   11.7845 C.ar    1  UNL1        0.1652
      9 S          62.2461   87.8536   10.3281 S.2     1  UNL1       -0.0517
     10 C          62.2121   86.3902   10.0009 C.ar    1  UNL1        0.0471
     11 C          61.9203   85.7940    8.6558 C.ar    1  UNL1        0.0265
     12 C          63.0032   85.0829    7.8997 C.ar    1  UNL1        0.0049
     13 C          62.7113   84.4868    6.5545 C.ar    1  UNL1        0.0339
     14 C          61.3366   84.6017    5.9655 C.ar    1  UNL1        0.1254
     15 N          61.0447   84.0055    4.6204 N.pl3   1  UNL1       -0.3426
     16 N          60.2537   85.3128    6.7216 N.ar    1  UNL1       -0.2296
     17 C          60.5455   85.9089    8.0668 C.ar    1  UNL1        0.1008
     18 H          61.7554   83.5388    4.1241 H       1  UNL1        0.1437
     19 H          60.1424   84.0810    4.2338 H       1  UNL1        0.1437
     20 C          63.5642   91.7377   12.6618 C.3     1  UNL1        0.1799
     21 N          64.4745   91.8208   13.8511 N.am    1  UNL1       -0.2636
     22 C          65.8600   92.3749   13.6979 C.2     1  UNL1        0.2497
     23 O          66.7703   92.4580   14.8872 O.2     1  UNL1       -0.2699
     24 C          66.3352   92.8458   12.3553 C.ar    1  UNL1        0.0567
     25 C          67.1340   91.9280   11.4781 C.ar    1  UNL1        0.0252
     26 C          67.6092   92.3989   10.1356 C.ar    1  UNL1        0.0990
     27 N          67.2855   93.7878    9.6703 N.ar    1  UNL1       -0.2423
     28 C          66.4867   94.7056   10.5475 C.ar    1  UNL1        0.0990
     29 C          66.0116   94.2346   11.8900 C.ar    1  UNL1        0.0252
     30 C          63.9994   91.3498   15.1936 C.3     1  UNL1        0.1209
     31 C          63.9171   89.8812   15.4873 C.ar    1  UNL1       -0.0023
     32 C          64.6914   88.9049   14.6523 C.ar    1  UNL1       -0.0026
     33 C          64.6091   87.4361   14.9460 C.ar    1  UNL1       -0.0003
     34 C          63.7526   86.9438   16.0746 C.ar    1  UNL1       -0.0000
     35 C          62.9783   87.9202   16.9096 C.ar    1  UNL1       -0.0003
     36 C          63.0605   89.3888   16.6160 C.ar    1  UNL1       -0.0026
@<TRIPOS>BOND
     1     5     6    1
     2     6     7   ar
     3     7     8   ar
     4     8     1    1
     5     1     2   am
     6     2     3    2
     7     2    20    1
     8    20    21    1
     9    21    30    1
    10    30    31    1
    11    31    32   ar
    12    32    33   ar
    13    33    34   ar
    14    34    35   ar
    15    35    36   ar
    16    21    22   am
    17    22    23    2
    18    22    24    1
    19    24    25   ar
    20    25    26   ar
    21    26    27   ar
    22    27    28   ar
    23    28    29   ar
    24     8     9   ar
    25     9    10   ar
    26    10    11    1
    27    11    12   ar
    28    12    13   ar
    29    13    14   ar
    30    14    15    1
    31    14    16   ar
    32    16    17   ar
    33    10     6   ar
    34    17    11   ar
    35    36    31   ar
    36    29    24   ar
    37     1     4    1
    38    15    18    1
    39    15    19    1
@<TRIPOS>MOLECULE
*****
 36 39 0 0 0
SMALL
GASTEIGER

@<TRIPOS>ATOM
      1 N          63.4413   87.5335   12.8500 N.am    1  UNL1       -0.2627
      2 C          62.1789   87.3761   12.0554 C.2     1  UNL1        0.2478
      3 O          61.3782   88.5853   11.6721 O.2     1  UNL1       -0.2729
      4 H          63.9668   86.7399   13.1016 H       1  UNL1        0.1568
      5 C          64.7295   91.7251   15.7915 C.3     1  UNL1        0.0527
      6 C          64.4953   90.8268   14.6133 C.ar    1  UNL1        0.0673
      7 N          63.9827   89.4181   14.6667 N.ar    1  UNL1       -0.2283
      8 C          63.9032   88.9002   13.2612 C.ar    1  UNL1        0.1652
      9 S          64.3667   89.9887   12.3392 S.2     1  UNL1       -0.0517
     10 C          64.7327   91.1795   13.1747 C.ar    1  UNL1        0.0471
     11 C          65.2459   92.4923   12.6619 C.ar    1  UNL1        0.0265
     12 C          64.9974   92.8897   11.2370 C.ar    1  UNL1        0.0049
     13 C          65.5106   94.2025   10.7242 C.ar    1  UNL1        0.0339
     14 C          66.2722   95.1180   11.6362 C.ar    1  UNL1        0.1254
     15 N          66.7854   96.4309   11.1234 N.pl3   1  UNL1       -0.3426
     16 N          66.5207   94.7207   13.0611 N.ar    1  UNL1       -0.2296
     17 C          66.0075   93.4078   13.5740 C.ar    1  UNL1        0.1008
     18 H          66.6224   96.6917   10.1882 H       1  UNL1        0.1437
     19 H          67.2853   97.0318   11.7220 H       1  UNL1        0.1437
     20 C          61.7170   86.0096   11.6442 C.3     1  UNL1        0.1799
     21 N          62.4620   85.2535   10.5842 N.am    1  UNL1       -0.2636
     22 C          63.2338   84.0192   10.9457 C.2     1  UNL1        0.2497
     23 O          63.9788   83.2631    9.8858 O.2     1  UNL1       -0.2699
     24 C          63.2607   83.5408   12.3672 C.ar    1  UNL1        0.0567
     25 C          62.3387   82.4420   12.8062 C.ar    1  UNL1        0.0252
     26 C          62.3656   81.9637   14.2277 C.ar    1  UNL1        0.0990
     27 N          63.3143   82.5841   15.2100 N.ar    1  UNL1       -0.2423
     28 C          64.2362   83.6829   14.7709 C.ar    1  UNL1        0.0990
     29 C          64.2094   84.1612   13.3495 C.ar    1  UNL1        0.0252
     30 C          62.4352   85.7318    9.1628 C.3     1  UNL1        0.1209
     31 C          61.2847   86.5595    8.6716 C.ar    1  UNL1       -0.0023
     32 C          60.1196   85.8986    7.9965 C.ar    1  UNL1       -0.0026
     33 C          58.9691   86.7264    7.5053 C.ar    1  UNL1       -0.0003
     34 C          58.9838   88.2150    7.6892 C.ar    1  UNL1       -0.0000
     35 C          60.1489   88.8759    8.3643 C.ar    1  UNL1       -0.0003
     36 C          61.2993   88.0482    8.8555 C.ar    1  UNL1       -0.0026
@<TRIPOS>BOND
     1     5     6    1
     2     6     7   ar
     3     7     8   ar
     4     8     1    1
     5     1     2   am
     6     2     3    2
     7     2    20    1
     8    20    21    1
     9    21    30    1
    10    30    31    1
    11    31    32   ar
    12    32    33   ar
    13    33    34   ar
    14    34    35   ar
    15    35    36   ar
    16    21    22   am
    17    22    23    2
    18    22    24    1
    19    24    25   ar
    20    25    26   ar
    21    26    27   ar
    22    27    28   ar
    23    28    29   ar
    24     8     9   ar
    25     9    10   ar
    26    10    11    1
    27    11    12   ar
    28    12    13   ar
    29    13    14   ar
    30    14    15    1
    31    14    16   ar
    32    16    17   ar
    33    10     6   ar
    34    17    11   ar
    35    36    31   ar
    36    29    24   ar
    37     1     4    1
    38    15    18    1
    39    15    19    1
@<TRIPOS>MOLECULE
*****
 36 39 0 0 0
SMALL
GASTEIGER

@<TRIPOS>ATOM
      1 N          63.5213   89.6117   12.8819 N.am    1  UNL1       -0.2627
      2 C          62.6739   89.2278   11.7054 C.2     1  UNL1        0.2478
      3 O          62.6823   90.0742   10.4670 O.2     1  UNL1       -0.2729
      4 H          63.5158   89.0562   13.6947 H       1  UNL1        0.1568
      5 C          66.5805   93.6772   14.2943 C.3     1  UNL1        0.0527
      6 C          65.7835   92.7106   13.4693 C.ar    1  UNL1        0.0673
      7 N          65.0244   91.5255   13.9881 N.ar    1  UNL1       -0.2283
      8 C          64.3773   90.8420   12.8201 C.ar    1  UNL1        0.1652
      9 S          64.7366   91.6047   11.5795 S.2     1  UNL1       -0.0517
     10 C          65.6056   92.7596   11.9807 C.ar    1  UNL1        0.0471
     11 C          66.1936   93.7837   11.0557 C.ar    1  UNL1        0.0265
     12 C          65.7776   95.2206   11.1659 C.ar    1  UNL1        0.0049
     13 C          66.3655   96.2447   10.2410 C.ar    1  UNL1        0.0339
     14 C          67.3695   95.8318    9.2057 C.ar    1  UNL1        0.1254
     15 N          67.9574   96.8558    8.2807 N.pl3   1  UNL1       -0.3426
     16 N          67.7854   94.3948    9.0955 N.ar    1  UNL1       -0.2296
     17 C          67.1975   93.3708   10.0204 C.ar    1  UNL1        0.1008
     18 H          67.6844   97.7989    8.3531 H       1  UNL1        0.1437
     19 H          68.6163   96.5848    7.6013 H       1  UNL1        0.1437
     20 C          61.8179   87.9976   11.7672 C.3     1  UNL1        0.1799
     21 N          62.3611   86.6815   11.2951 N.am    1  UNL1       -0.2636
     22 C          61.9298   86.1235    9.9713 C.2     1  UNL1        0.2497
     23 O          62.4730   84.8074    9.4992 O.2     1  UNL1       -0.2699
     24 C          60.9553   86.8817    9.1194 C.ar    1  UNL1        0.0567
     25 C          60.9958   88.3808    9.0867 C.ar    1  UNL1        0.0252
     26 C          60.0214   89.1390    8.2348 C.ar    1  UNL1        0.0990
     27 N          59.0064   88.3980    7.4157 N.ar    1  UNL1       -0.2423
     28 C          58.9660   86.8989    7.4485 C.ar    1  UNL1        0.0990
     29 C          59.9404   86.1408    8.3003 C.ar    1  UNL1        0.0252
     30 C          63.3356   85.9233   12.1470 C.3     1  UNL1        0.1209
     31 C          62.9345   84.6157   12.7626 C.ar    1  UNL1       -0.0023
     32 C          62.5837   84.5489   14.2195 C.ar    1  UNL1       -0.0026
     33 C          62.1826   83.2411   14.8352 C.ar    1  UNL1       -0.0003
     34 C          62.1322   82.0003   13.9940 C.ar    1  UNL1       -0.0000
     35 C          62.4830   82.0671   12.5371 C.ar    1  UNL1       -0.0003
     36 C          62.8841   83.3747   11.9214 C.ar    1  UNL1       -0.0026
@<TRIPOS>BOND
     1     5     6    1
     2     6     7   ar
     3     7     8   ar
     4     8     1    1
     5     1     2   am
     6     2     3    2
     7     2    20    1
     8    20    21    1
     9    21    30    1
    10    30    31    1
    11    31    32   ar
    12    32    33   ar
    13    33    34   ar
    14    34    35   ar
    15    35    36   ar
    16    21    22   am
    17    22    23    2
    18    22    24    1
    19    24    25   ar
    20    25    26   ar
    21    26    27   ar
    22    27    28   ar
    23    28    29   ar
    24     8     9   ar
    25     9    10   ar
    26    10    11    1
    27    11    12   ar
    28    12    13   ar
    29    13    14   ar
    30    14    15    1
    31    14    16   ar
    32    16    17   ar
    33    10     6   ar
    34    17    11   ar
    35    36    31   ar
    36    29    24   ar
    37     1     4    1
    38    15    18    1
    39    15    19    1
@<TRIPOS>MOLECULE
*****
 36 39 0 0 0
SMALL
GASTEIGER

@<TRIPOS>ATOM
      1 N          63.3794   89.6071   12.7429 N.am    1  UNL1       -0.2627
      2 C          63.7681   88.4172   13.5693 C.2     1  UNL1        0.2478
      3 O          65.0420   88.4376   14.3609 O.2     1  UNL1       -0.2729
      4 H          62.5432   89.5937   12.2234 H       1  UNL1        0.1568
      5 C          66.5424   93.5604   14.2423 C.3     1  UNL1        0.0527
      6 C          65.7186   92.6346   13.3971 C.ar    1  UNL1        0.0673
      7 N          64.9331   91.4554   13.8896 N.ar    1  UNL1       -0.2283
      8 C          64.2648   90.8175   12.7079 C.ar    1  UNL1        0.1652
      9 S          64.6372   91.6025   11.4852 S.2     1  UNL1       -0.0517
     10 C          65.5357   92.7255   11.9111 C.ar    1  UNL1        0.0471
     11 C          66.1444   93.7581   11.0093 C.ar    1  UNL1        0.0265
     12 C          67.1271   93.3462    9.9535 C.ar    1  UNL1        0.0049
     13 C          67.7358   94.3788    9.0518 C.ar    1  UNL1        0.0339
     14 C          67.3619   95.8233    9.2058 C.ar    1  UNL1        0.1254
     15 N          67.9706   96.8559    8.3041 N.pl3   1  UNL1       -0.3426
     16 N          66.3792   96.2352   10.2616 N.ar    1  UNL1       -0.2296
     17 C          65.7705   95.2026   11.1633 C.ar    1  UNL1        0.1008
     18 H          68.6156   96.5856    7.6111 H       1  UNL1        0.1437
     19 H          67.7252   97.8039    8.4052 H       1  UNL1        0.1437
     20 C          62.8827   87.2069   13.6042 C.3     1  UNL1        0.1799
     21 N          63.1046   86.0870   12.6313 N.am    1  UNL1       -0.2636
     22 C          62.4776   86.1410   11.2698 C.2     1  UNL1        0.2497
     23 O          62.6995   85.0210   10.2968 O.2     1  UNL1       -0.2699
     24 C          61.6285   87.3149   10.8811 C.ar    1  UNL1        0.0567
     25 C          60.4423   87.6925   11.7181 C.ar    1  UNL1        0.0252
     26 C          59.5933   88.8664   11.3294 C.ar    1  UNL1        0.0990
     27 N          59.9305   89.6627   10.1038 N.ar    1  UNL1       -0.2423
     28 C          61.1166   89.2852    9.2668 C.ar    1  UNL1        0.0990
     29 C          61.9656   88.1113    9.6555 C.ar    1  UNL1        0.0252
     30 C          63.9537   84.9130   13.0200 C.3     1  UNL1        0.1209
     31 C          63.3354   83.5535   13.1588 C.ar    1  UNL1       -0.0023
     32 C          62.3628   83.2816   14.2680 C.ar    1  UNL1       -0.0026
     33 C          61.7445   81.9220   14.4068 C.ar    1  UNL1       -0.0003
     34 C          62.0988   80.8344   13.4365 C.ar    1  UNL1       -0.0000
     35 C          63.0713   81.1063   12.3274 C.ar    1  UNL1       -0.0003
     36 C          63.6896   82.4658   12.1885 C.ar    1  UNL1       -0.0026
@<TRIPOS>BOND
     1     5     6    1
     2     6     7   ar
     3     7     8   ar
     4     8     1    1
     5     1     2   am
     6     2     3    2
     7     2    20    1
     8    20    21    1
     9    21    30    1
    10    30    31    1
    11    31    32   ar
    12    32    33   ar
    13    33    34   ar
    14    34    35   ar
    15    35    36   ar
    16    21    22   am
    17    22    23    2
    18    22    24    1
    19    24    25   ar
    20    25    26   ar
    21    26    27   ar
    22    27    28   ar
    23    28    29   ar
    24     8     9   ar
    25     9    10   ar
    26    10    11    1
    27    11    12   ar
    28    12    13   ar
    29    13    14   ar
    30    14    15    1
    31    14    16   ar
    32    16    17   ar
    33    10     6   ar
    34    17    11   ar
    35    36    31   ar
    36    29    24   ar
    37     1     4    1
    38    15    18    1
    39    15    19    1
