@<TRIPOS>MOLECULE
*****
 28 30 0 0 0
SMALL
GASTEIGER

@<TRIPOS>ATOM
      1 N          63.3154   90.0708   12.2982 N.pl3   1  UNL1       -0.2872
      2 N          65.9009   93.6083   11.2727 N.3     1  UNL1       -0.2704
      3 C          65.9617   93.0078   12.6459 C.3     1  UNL1        0.0739
      4 C          65.0999   91.8286   12.9877 C.3     1  UNL1        0.0374
      5 C          64.1773   91.2499   11.9564 C.3     1  UNL1        0.0800
      6 C          64.1164   91.8504   10.5832 C.3     1  UNL1        0.0374
      7 C          64.9782   93.0296   10.2414 C.3     1  UNL1        0.0739
      8 C          66.7627   94.7874   10.9309 C.3     1  UNL1        0.1050
      9 C          68.0441   93.7842    9.5702 C.3     1  UNL1        0.0368
     10 C          67.1914   95.0168    9.5119 C.3     1  UNL1        0.1486
     11 C          66.3387   96.2494    9.4536 C.3     1  UNL1        0.0368
     12 F          67.6201   95.2462    8.0928 F       1  UNL1       -0.2386
     13 C          62.3809   89.5022   11.2719 C.ar    1  UNL1        0.0515
     14 C          61.1243   90.2384   10.9122 C.ar    1  UNL1        0.0148
     15 C          60.1898   89.6698    9.8859 C.ar    1  UNL1        0.0051
     16 C          60.5117   88.3652    9.2193 C.ar    1  UNL1        0.0715
     17 C          61.7681   87.6291    9.5790 C.ar    1  UNL1        0.0051
     18 C          62.7027   88.1976   10.6054 C.ar    1  UNL1        0.0148
     19 C          59.5770   87.7967    8.1930 C.3     1  UNL1        0.4186
     20 F          58.6424   87.2281    7.1667 F       1  UNL1       -0.1659
     21 F          59.4356   89.1537    7.5699 F       1  UNL1       -0.1659
     22 F          59.7183   86.4396    8.8161 F       1  UNL1       -0.1659
     23 C          63.3882   89.4601   13.6663 C.ar    1  UNL1        0.0710
     24 C          64.1024   88.1568   13.8689 C.ar    1  UNL1        0.0180
     25 C          64.1752   87.5461   15.2371 C.ar    1  UNL1        0.0220
     26 C          63.5337   88.2389   16.4027 C.ar    1  UNL1        0.0990
     27 N          62.8194   89.5423   16.2001 N.ar    1  UNL1       -0.2410
     28 C          62.7467   90.1529   14.8320 C.ar    1  UNL1        0.1136
@<TRIPOS>BOND
     1     9    10    1
     2    10    11    1
     3    10    12    1
     4    10     8    1
     5     8     2    1
     6     2     3    1
     7     3     4    1
     8     4     5    1
     9     5     1    1
    10     1    13    1
    11    13    14   ar
    12    14    15   ar
    13    15    16   ar
    14    16    19    1
    15    19    20    1
    16    19    21    1
    17    19    22    1
    18    16    17   ar
    19    17    18   ar
    20     1    23    1
    21    23    24   ar
    22    24    25   ar
    23    25    26   ar
    24    26    27   ar
    25    27    28   ar
    26     5     6    1
    27     6     7    1
    28     7     2    1
    29    18    13   ar
    30    28    23   ar
@<TRIPOS>MOLECULE
*****
 28 30 0 0 0
SMALL
GASTEIGER

@<TRIPOS>ATOM
      1 N          62.0494   86.7407   10.8205 N.pl3   1  UNL1       -0.2872
      2 N          63.7839   90.6327   12.2674 N.3     1  UNL1       -0.2704
      3 C          63.1038   90.5650   10.9322 C.3     1  UNL1        0.0739
      4 C          62.5256   89.2677   10.4499 C.3     1  UNL1        0.0374
      5 C          62.6275   88.0380   11.3028 C.3     1  UNL1        0.0800
      6 C          63.3076   88.1057   12.6380 C.3     1  UNL1        0.0374
      7 C          63.8858   89.4030   13.1203 C.3     1  UNL1        0.0739
      8 C          64.3620   91.9300   12.7497 C.3     1  UNL1        0.1050
      9 C          65.5443   92.7041   11.1676 C.3     1  UNL1        0.0368
     10 C          65.8218   92.2175   12.5591 C.3     1  UNL1        0.1486
     11 C          66.0993   91.7309   13.9505 C.3     1  UNL1        0.0368
     12 F          67.2817   92.5050   12.3684 F       1  UNL1       -0.2386
     13 C          62.4627   85.4502   11.4637 C.ar    1  UNL1        0.0515
     14 C          62.1773   85.2113   12.9168 C.ar    1  UNL1        0.0148
     15 C          62.5906   83.9208   13.5601 C.ar    1  UNL1        0.0051
     16 C          63.2893   82.8692   12.7502 C.ar    1  UNL1        0.0715
     17 C          63.5747   83.1080   11.2972 C.ar    1  UNL1        0.0051
     18 C          63.1613   84.3985   10.6538 C.ar    1  UNL1        0.0148
     19 C          63.7026   81.5786   13.3935 C.3     1  UNL1        0.4186
     20 F          64.1159   80.2882   14.0368 F       1  UNL1       -0.1659
     21 F          63.2519   80.8273   12.1760 F       1  UNL1       -0.1659
     22 F          64.1533   82.3299   14.6110 F       1  UNL1       -0.1659
     23 C          61.0579   86.7338    9.6949 C.ar    1  UNL1        0.0710
     24 C          61.3430   85.9486    8.4490 C.ar    1  UNL1        0.0180
     25 C          60.3514   85.9418    7.3235 C.ar    1  UNL1        0.0220
     26 C          59.0748   86.7201    7.4438 C.ar    1  UNL1        0.0990
     27 N          58.7897   87.5053    8.6897 N.ar    1  UNL1       -0.2410
     28 C          59.7812   87.5121    9.8152 C.ar    1  UNL1        0.1136
@<TRIPOS>BOND
     1     9    10    1
     2    10    11    1
     3    10    12    1
     4    10     8    1
     5     8     2    1
     6     2     3    1
     7     3     4    1
     8     4     5    1
     9     5     1    1
    10     1    13    1
    11    13    14   ar
    12    14    15   ar
    13    15    16   ar
    14    16    19    1
    15    19    20    1
    16    19    21    1
    17    19    22    1
    18    16    17   ar
    19    17    18   ar
    20     1    23    1
    21    23    24   ar
    22    24    25   ar
    23    25    26   ar
    24    26    27   ar
    25    27    28   ar
    26     5     6    1
    27     6     7    1
    28     7     2    1
    29    18    13   ar
    30    28    23   ar
@<TRIPOS>MOLECULE
*****
 28 30 0 0 0
SMALL
GASTEIGER

@<TRIPOS>ATOM
      1 N          63.2591   89.0711   12.6566 N.pl3   1  UNL1       -0.2872
      2 N          63.9380   84.7784   13.8234 N.3     1  UNL1       -0.2704
      3 C          63.1395   85.1048   12.5962 C.3     1  UNL1        0.0739
      4 C          62.9132   86.5357   12.2073 C.3     1  UNL1        0.0374
      5 C          63.4854   87.6402   13.0455 C.3     1  UNL1        0.0800
      6 C          64.2838   87.3138   14.2726 C.3     1  UNL1        0.0374
      7 C          64.5101   85.8829   14.6616 C.3     1  UNL1        0.0739
      8 C          64.1642   83.3475   14.2123 C.3     1  UNL1        0.1050
      9 C          63.6136   81.5116   13.3033 C.3     1  UNL1        0.0368
     10 C          62.9994   82.4105   14.3352 C.3     1  UNL1        0.1486
     11 C          62.3853   83.3093   15.3671 C.3     1  UNL1        0.0368
     12 F          61.8346   81.4734   14.4581 F       1  UNL1       -0.2386
     13 C          64.1628   90.1444   13.1869 C.ar    1  UNL1        0.0515
     14 C          64.6724   90.0674   14.5957 C.ar    1  UNL1        0.0148
     15 C          65.5761   91.1407   15.1261 C.ar    1  UNL1        0.0051
     16 C          65.9702   92.2910   14.2478 C.ar    1  UNL1        0.0715
     17 C          65.4607   92.3681   12.8391 C.ar    1  UNL1        0.0051
     18 C          64.5570   91.2947   12.3086 C.ar    1  UNL1        0.0148
     19 C          66.8740   93.3644   14.7782 C.3     1  UNL1        0.4186
     20 F          67.7777   94.4376   15.3087 F       1  UNL1       -0.1659
     21 F          66.4120   94.2901   13.6922 F       1  UNL1       -0.1659
     22 F          67.3360   92.4386   15.8642 F       1  UNL1       -0.1659
     23 C          62.1291   89.4288   11.7372 C.ar    1  UNL1        0.0710
     24 C          62.3004   89.2995   10.2527 C.ar    1  UNL1        0.0180
     25 C          61.1704   89.6572    9.3333 C.ar    1  UNL1        0.0220
     26 C          59.8691   90.1441    9.8986 C.ar    1  UNL1        0.0990
     27 N          59.6978   90.2733   11.3832 N.ar    1  UNL1       -0.2410
     28 C          60.8277   89.9157   12.3025 C.ar    1  UNL1        0.1136
@<TRIPOS>BOND
     1     9    10    1
     2    10    11    1
     3    10    12    1
     4    10     8    1
     5     8     2    1
     6     2     3    1
     7     3     4    1
     8     4     5    1
     9     5     1    1
    10     1    13    1
    11    13    14   ar
    12    14    15   ar
    13    15    16   ar
    14    16    19    1
    15    19    20    1
    16    19    21    1
    17    19    22    1
    18    16    17   ar
    19    17    18   ar
    20     1    23    1
    21    23    24   ar
    22    24    25   ar
    23    25    26   ar
    24    26    27   ar
    25    27    28   ar
    26     5     6    1
    27     6     7    1
    28     7     2    1
    29    18    13   ar
    30    28    23   ar
@<TRIPOS>MOLECULE
*****
 28 30 0 0 0
SMALL
GASTEIGER

@<TRIPOS>ATOM
      1 N          62.7815   88.0304   11.9297 N.pl3   1  UNL1       -0.2872
      2 N          65.0846   91.3903   13.8419 N.3     1  UNL1       -0.2704
      3 C          64.9040   90.0933   14.5734 C.3     1  UNL1        0.0739
      4 C          64.1363   88.9734   13.9360 C.3     1  UNL1        0.0374
      5 C          63.5492   89.1504   12.5671 C.3     1  UNL1        0.0800
      6 C          63.7298   90.4474   11.8356 C.3     1  UNL1        0.0374
      7 C          64.4975   91.5673   12.4730 C.3     1  UNL1        0.0739
      8 C          65.8523   92.5103   14.4793 C.3     1  UNL1        0.1050
      9 C          67.6805   91.8916   13.5991 C.3     1  UNL1        0.0368
     10 C          67.2452   92.2734   14.9829 C.3     1  UNL1        0.1486
     11 C          66.8099   92.6552   16.3666 C.3     1  UNL1        0.0368
     12 F          68.6382   92.0365   15.4864 F       1  UNL1       -0.2386
     13 C          63.0134   86.6157   12.3711 C.ar    1  UNL1        0.0515
     14 C          62.4089   85.4805   11.5991 C.ar    1  UNL1        0.0148
     15 C          62.6409   84.0658   12.0405 C.ar    1  UNL1        0.0051
     16 C          63.4773   83.7863   13.2538 C.ar    1  UNL1        0.0715
     17 C          64.0818   84.9214   14.0258 C.ar    1  UNL1        0.0051
     18 C          63.8498   86.3362   13.5845 C.ar    1  UNL1        0.0148
     19 C          63.7092   82.3715   13.6952 C.3     1  UNL1        0.4186
     20 F          63.9412   80.9568   14.1365 F       1  UNL1       -0.1659
     21 F          62.6550   82.5279   14.7507 F       1  UNL1       -0.1659
     22 F          64.7635   82.2151   12.6397 F       1  UNL1       -0.1659
     23 C          61.7818   88.3251   10.8509 C.ar    1  UNL1        0.0710
     24 C          61.7770   87.5119    9.5905 C.ar    1  UNL1        0.0180
     25 C          60.7772   87.8067    8.5117 C.ar    1  UNL1        0.0220
     26 C          59.7825   88.9145    8.6933 C.ar    1  UNL1        0.0990
     27 N          59.7873   89.7277    9.9538 N.ar    1  UNL1       -0.2410
     28 C          60.7870   89.4330   11.0326 C.ar    1  UNL1        0.1136
@<TRIPOS>BOND
     1     9    10    1
     2    10    11    1
     3    10    12    1
     4    10     8    1
     5     8     2    1
     6     2     3    1
     7     3     4    1
     8     4     5    1
     9     5     1    1
    10     1    13    1
    11    13    14   ar
    12    14    15   ar
    13    15    16   ar
    14    16    19    1
    15    19    20    1
    16    19    21    1
    17    19    22    1
    18    16    17   ar
    19    17    18   ar
    20     1    23    1
    21    23    24   ar
    22    24    25   ar
    23    25    26   ar
    24    26    27   ar
    25    27    28   ar
    26     5     6    1
    27     6     7    1
    28     7     2    1
    29    18    13   ar
    30    28    23   ar
@<TRIPOS>MOLECULE
*****
 28 30 0 0 0
SMALL
GASTEIGER

@<TRIPOS>ATOM
      1 N          62.6827   87.9383   11.7662 N.pl3   1  UNL1       -0.2872
      2 N          63.3466   83.6389   12.9171 N.3     1  UNL1       -0.2704
      3 C          63.8500   84.7390   13.8038 C.3     1  UNL1        0.0739
      4 C          63.6287   86.1721   13.4202 C.3     1  UNL1        0.0374
      5 C          62.9040   86.5051   12.1498 C.3     1  UNL1        0.0800
      6 C          62.4005   85.4050   11.2631 C.3     1  UNL1        0.0374
      7 C          62.6218   83.9719   11.6468 C.3     1  UNL1        0.0739
      8 C          63.5679   82.2058   13.3008 C.3     1  UNL1        0.1050
      9 C          61.9053   82.0158   14.6044 C.3     1  UNL1        0.0368
     10 C          62.4017   81.2680   13.4026 C.3     1  UNL1        0.1486
     11 C          62.8981   80.5202   12.2008 C.3     1  UNL1        0.0368
     12 F          61.2354   80.3301   13.5045 F       1  UNL1       -0.2386
     13 C          63.4426   89.0273   12.4636 C.ar    1  UNL1        0.0515
     14 C          63.6145   90.3632   11.8034 C.ar    1  UNL1        0.0148
     15 C          64.3744   91.4523   12.5008 C.ar    1  UNL1        0.0051
     16 C          64.9625   91.2055   13.8585 C.ar    1  UNL1        0.0715
     17 C          64.7906   89.8697   14.5187 C.ar    1  UNL1        0.0051
     18 C          64.0307   88.7805   13.8213 C.ar    1  UNL1        0.0148
     19 C          65.7224   92.2946   14.5559 C.3     1  UNL1        0.4186
     20 F          66.4823   93.3837   15.2533 F       1  UNL1       -0.1659
     21 F          65.2142   91.8024   15.8785 F       1  UNL1       -0.1659
     22 F          66.2306   92.7869   13.2333 F       1  UNL1       -0.1659
     23 C          61.7015   88.2823   10.6851 C.ar    1  UNL1        0.0710
     24 C          61.6145   87.4317    9.4527 C.ar    1  UNL1        0.0180
     25 C          60.6332   87.7758    8.3716 C.ar    1  UNL1        0.0220
     26 C          59.7390   88.9706    8.5229 C.ar    1  UNL1        0.0990
     27 N          59.8260   89.8212    9.7553 N.ar    1  UNL1       -0.2410
     28 C          60.8072   89.4771   10.8364 C.ar    1  UNL1        0.1136
@<TRIPOS>BOND
     1     9    10    1
     2    10    11    1
     3    10    12    1
     4    10     8    1
     5     8     2    1
     6     2     3    1
     7     3     4    1
     8     4     5    1
     9     5     1    1
    10     1    13    1
    11    13    14   ar
    12    14    15   ar
    13    15    16   ar
    14    16    19    1
    15    19    20    1
    16    19    21    1
    17    19    22    1
    18    16    17   ar
    19    17    18   ar
    20     1    23    1
    21    23    24   ar
    22    24    25   ar
    23    25    26   ar
    24    26    27   ar
    25    27    28   ar
    26     5     6    1
    27     6     7    1
    28     7     2    1
    29    18    13   ar
    30    28    23   ar
@<TRIPOS>MOLECULE
*****
 28 30 0 0 0
SMALL
GASTEIGER

@<TRIPOS>ATOM
      1 N          63.2044   90.0585   12.2303 N.pl3   1  UNL1       -0.2872
      2 N          65.9804   93.5276   11.5169 N.3     1  UNL1       -0.2704
      3 C          65.1279   93.0069   10.3980 C.3     1  UNL1        0.0739
      4 C          64.2025   91.8505   10.6358 C.3     1  UNL1        0.0374
      5 C          64.1298   91.2149   11.9925 C.3     1  UNL1        0.0800
      6 C          64.9823   91.7356   13.1114 C.3     1  UNL1        0.0374
      7 C          65.9077   92.8920   12.8736 C.3     1  UNL1        0.0739
      8 C          66.9058   94.6840   11.2791 C.3     1  UNL1        0.1050
      9 C          67.7392   94.6662    9.3285 C.3     1  UNL1        0.0368
     10 C          66.7483   95.5303   10.0507 C.3     1  UNL1        0.1486
     11 C          65.7575   96.3943   10.7729 C.3     1  UNL1        0.0368
     12 F          66.5909   96.3765    8.8222 F       1  UNL1       -0.2386
     13 C          63.2655   89.3029   13.5246 C.ar    1  UNL1        0.0515
     14 C          62.7420   89.9282   14.7836 C.ar    1  UNL1        0.0148
     15 C          62.8032   89.1726   16.0779 C.ar    1  UNL1        0.0051
     16 C          63.3878   87.7916   16.1133 C.ar    1  UNL1        0.0715
     17 C          63.9113   87.1663   14.8544 C.ar    1  UNL1        0.0051
     18 C          63.8501   87.9219   13.5600 C.ar    1  UNL1        0.0148
     19 C          63.4489   87.0360   17.4077 C.3     1  UNL1        0.4186
     20 F          63.5100   86.2805   18.7020 F       1  UNL1       -0.1659
     21 F          63.7847   85.7804   16.6589 F       1  UNL1       -0.1659
     22 F          63.1130   88.2916   18.1564 F       1  UNL1       -0.1659
     23 C          62.2180   89.6578   11.1738 C.ar    1  UNL1        0.0710
     24 C          62.4625   88.4310   10.3459 C.ar    1  UNL1        0.0180
     25 C          61.4760   88.0303    9.2894 C.ar    1  UNL1        0.0220
     26 C          60.2449   88.8563    9.0607 C.ar    1  UNL1        0.0990
     27 N          60.0004   90.0830    9.8886 N.ar    1  UNL1       -0.2410
     28 C          60.9868   90.4837   10.9451 C.ar    1  UNL1        0.1136
@<TRIPOS>BOND
     1     9    10    1
     2    10    11    1
     3    10    12    1
     4    10     8    1
     5     8     2    1
     6     2     3    1
     7     3     4    1
     8     4     5    1
     9     5     1    1
    10     1    13    1
    11    13    14   ar
    12    14    15   ar
    13    15    16   ar
    14    16    19    1
    15    19    20    1
    16    19    21    1
    17    19    22    1
    18    16    17   ar
    19    17    18   ar
    20     1    23    1
    21    23    24   ar
    22    24    25   ar
    23    25    26   ar
    24    26    27   ar
    25    27    28   ar
    26     5     6    1
    27     6     7    1
    28     7     2    1
    29    18    13   ar
    30    28    23   ar
@<TRIPOS>MOLECULE
*****
 28 30 0 0 0
SMALL
GASTEIGER

@<TRIPOS>ATOM
      1 N          61.9945   87.3942   10.2615 N.pl3   1  UNL1       -0.2872
      2 N          63.1942   83.1429   11.1201 N.3     1  UNL1       -0.2704
      3 C          62.4981   83.9531   12.1732 C.3     1  UNL1        0.0739
      4 C          62.0982   85.3701   11.8870 C.3     1  UNL1        0.0374
      5 C          62.3944   85.9771   10.5477 C.3     1  UNL1        0.0800
      6 C          63.0905   85.1670    9.4946 C.3     1  UNL1        0.0374
      7 C          63.4904   83.7499    9.7808 C.3     1  UNL1        0.0739
      8 C          63.5941   81.7258   11.4064 C.3     1  UNL1        0.1050
      9 C          62.4859   80.2578   12.4630 C.3     1  UNL1        0.0368
     10 C          63.5859   81.2144   12.8164 C.3     1  UNL1        0.1486
     11 C          64.6858   82.1710   13.1698 C.3     1  UNL1        0.0368
     12 F          63.5776   80.7029   14.2266 F       1  UNL1       -0.2386
     13 C          62.6780   88.5245   10.9723 C.ar    1  UNL1        0.0515
     14 C          63.1548   88.3444   12.3831 C.ar    1  UNL1        0.0148
     15 C          63.8383   89.4747   13.0938 C.ar    1  UNL1        0.0051
     16 C          64.0450   90.7852   12.3938 C.ar    1  UNL1        0.0715
     17 C          63.5683   90.9653   10.9831 C.ar    1  UNL1        0.0051
     18 C          62.8847   89.8350   10.2723 C.ar    1  UNL1        0.0148
     19 C          64.7286   91.9155   13.1046 C.3     1  UNL1        0.4186
     20 F          65.4121   93.0458   13.8154 F       1  UNL1       -0.1659
     21 F          64.5536   91.1998   14.4111 F       1  UNL1       -0.1659
     22 F          64.9035   92.6313   11.7981 F       1  UNL1       -0.1659
     23 C          60.9111   87.6810    9.2646 C.ar    1  UNL1        0.0710
     24 C          60.6091   89.0968    8.8716 C.ar    1  UNL1        0.0180
     25 C          59.5256   89.3835    7.8746 C.ar    1  UNL1        0.0220
     26 C          58.7442   88.2545    7.2706 C.ar    1  UNL1        0.0990
     27 N          59.0462   86.8388    7.6636 N.ar    1  UNL1       -0.2410
     28 C          60.1296   86.5520    8.6606 C.ar    1  UNL1        0.1136
@<TRIPOS>BOND
     1     9    10    1
     2    10    11    1
     3    10    12    1
     4    10     8    1
     5     8     2    1
     6     2     3    1
     7     3     4    1
     8     4     5    1
     9     5     1    1
    10     1    13    1
    11    13    14   ar
    12    14    15   ar
    13    15    16   ar
    14    16    19    1
    15    19    20    1
    16    19    21    1
    17    19    22    1
    18    16    17   ar
    19    17    18   ar
    20     1    23    1
    21    23    24   ar
    22    24    25   ar
    23    25    26   ar
    24    26    27   ar
    25    27    28   ar
    26     5     6    1
    27     6     7    1
    28     7     2    1
    29    18    13   ar
    30    28    23   ar
@<TRIPOS>MOLECULE
*****
 28 30 0 0 0
SMALL
GASTEIGER

@<TRIPOS>ATOM
      1 N          63.1392   89.7851   12.6665 N.pl3   1  UNL1       -0.2872
      2 N          60.0820   88.1309    9.8087 N.3     1  UNL1       -0.2704
      3 C          59.7420   89.3105   10.6706 C.3     1  UNL1        0.0739
      4 C          60.7610   89.8619   11.6232 C.3     1  UNL1        0.0374
      5 C          62.1201   89.2337   11.7139 C.3     1  UNL1        0.0800
      6 C          62.4601   88.0541   10.8520 C.3     1  UNL1        0.0374
      7 C          61.4410   87.5027    9.8995 C.3     1  UNL1        0.0739
      8 C          59.0629   87.5795    8.8561 C.3     1  UNL1        0.1050
      9 C          59.6454   86.0813    7.4719 C.3     1  UNL1        0.0368
     10 C          59.3509   87.5495    7.3844 C.3     1  UNL1        0.1486
     11 C          59.0564   89.0177    7.2969 C.3     1  UNL1        0.0368
     12 F          59.6389   87.5195    5.9125 F       1  UNL1       -0.2386
     13 C          63.9787   90.9625   12.2679 C.ar    1  UNL1        0.0515
     14 C          64.8903   91.6072   13.2696 C.ar    1  UNL1        0.0148
     15 C          65.7298   92.7845   12.8710 C.ar    1  UNL1        0.0051
     16 C          65.6578   93.3173   11.4706 C.ar    1  UNL1        0.0715
     17 C          64.7463   92.6726   10.4689 C.ar    1  UNL1        0.0051
     18 C          63.9067   91.4952   10.8675 C.ar    1  UNL1        0.0148
     19 C          66.4974   94.4947   11.0720 C.3     1  UNL1        0.4186
     20 F          67.3369   95.6721   10.6734 F       1  UNL1       -0.1659
     21 F          66.3886   94.0852    9.6331 F       1  UNL1       -0.1659
     22 F          66.6062   94.9042   12.5109 F       1  UNL1       -0.1659
     23 C          63.3187   89.1591   14.0177 C.ar    1  UNL1        0.0710
     24 C          64.0023   87.8299   14.1437 C.ar    1  UNL1        0.0180
     25 C          64.1819   87.2040   15.4951 C.ar    1  UNL1        0.0220
     26 C          63.6778   87.9072   16.7203 C.ar    1  UNL1        0.0990
     27 N          62.9942   89.2364   16.5943 N.ar    1  UNL1       -0.2410
     28 C          62.8147   89.8624   15.2431 C.ar    1  UNL1        0.1136
@<TRIPOS>BOND
     1     9    10    1
     2    10    11    1
     3    10    12    1
     4    10     8    1
     5     8     2    1
     6     2     3    1
     7     3     4    1
     8     4     5    1
     9     5     1    1
    10     1    13    1
    11    13    14   ar
    12    14    15   ar
    13    15    16   ar
    14    16    19    1
    15    19    20    1
    16    19    21    1
    17    19    22    1
    18    16    17   ar
    19    17    18   ar
    20     1    23    1
    21    23    24   ar
    22    24    25   ar
    23    25    26   ar
    24    26    27   ar
    25    27    28   ar
    26     5     6    1
    27     6     7    1
    28     7     2    1
    29    18    13   ar
    30    28    23   ar
@<TRIPOS>MOLECULE
*****
 28 30 0 0 0
SMALL
GASTEIGER

@<TRIPOS>ATOM
      1 N          61.2670   93.7005   -1.6985 N.pl3   1  UNL1       -0.2872
      2 N          63.4865   93.7293   -5.6129 N.3     1  UNL1       -0.2704
      3 C          63.9330   92.8229   -4.5042 C.3     1  UNL1        0.0739
      4 C          63.1931   92.8133   -3.1994 C.3     1  UNL1        0.0374
      5 C          62.0068   93.7101   -3.0033 C.3     1  UNL1        0.0800
      6 C          61.5604   94.6164   -4.1119 C.3     1  UNL1        0.0374
      7 C          62.3003   94.6260   -5.4168 C.3     1  UNL1        0.0739
      8 C          64.2264   93.7389   -6.9177 C.3     1  UNL1        0.1050
      9 C          65.6021   95.2542   -6.3601 C.3     1  UNL1        0.0368
     10 C          65.7203   93.8725   -6.9318 C.3     1  UNL1        0.1486
     11 C          65.8385   92.4908   -7.5035 C.3     1  UNL1        0.0368
     12 F          67.2144   94.0062   -6.9459 F       1  UNL1       -0.2386
     13 C          59.7798   93.8949   -1.6781 C.ar    1  UNL1        0.0515
     14 C          58.8811   92.8731   -2.3094 C.ar    1  UNL1        0.0148
     15 C          57.3939   93.0674   -2.2890 C.ar    1  UNL1        0.0051
     16 C          56.8053   94.2836   -1.6374 C.ar    1  UNL1        0.0715
     17 C          57.7039   95.3053   -1.0062 C.ar    1  UNL1        0.0051
     18 C          59.1912   95.1110   -1.0266 C.ar    1  UNL1        0.0148
     19 C          55.3180   94.4779   -1.6171 C.3     1  UNL1        0.4186
     20 F          53.8309   94.6722   -1.5968 F       1  UNL1       -0.1659
     21 F          55.1241   93.0290   -1.9534 F       1  UNL1       -0.1659
     22 F          55.5120   95.9267   -1.2808 F       1  UNL1       -0.1659
     23 C          62.0143   93.4966   -0.4140 C.ar    1  UNL1        0.0710
     24 C          61.6140   92.3927    0.5195 C.ar    1  UNL1        0.0180
     25 C          62.3614   92.1888    1.8040 C.ar    1  UNL1        0.0220
     26 C          63.5090   93.0887    2.1549 C.ar    1  UNL1        0.0990
     27 N          63.9093   94.1925    1.2215 N.ar    1  UNL1       -0.2410
     28 C          63.1619   94.3965   -0.0630 C.ar    1  UNL1        0.1136
@<TRIPOS>BOND
     1     9    10    1
     2    10    11    1
     3    10    12    1
     4    10     8    1
     5     8     2    1
     6     2     3    1
     7     3     4    1
     8     4     5    1
     9     5     1    1
    10     1    13    1
    11    13    14   ar
    12    14    15   ar
    13    15    16   ar
    14    16    19    1
    15    19    20    1
    16    19    21    1
    17    19    22    1
    18    16    17   ar
    19    17    18   ar
    20     1    23    1
    21    23    24   ar
    22    24    25   ar
    23    25    26   ar
    24    26    27   ar
    25    27    28   ar
    26     5     6    1
    27     6     7    1
    28     7     2    1
    29    18    13   ar
    30    28    23   ar
