@<TRIPOS>MOLECULE
*****
 34 37 0 0 0
SMALL
GASTEIGER

@<TRIPOS>ATOM
      1 O          65.3237   91.9497   10.5690 O.2     1  UNL1       -0.2522
      2 C          65.3283   92.5603   11.9391 C.2     1  UNL1        0.3088
      3 N          65.7301   93.9941   12.1199 N.am    1  UNL1       -0.2522
      4 N          64.9310   91.7370   13.1285 N.am    1  UNL1       -0.2633
      5 C          64.5292   90.3032   12.9477 C.3     1  UNL1        0.0993
      6 C          64.1320   89.4800   14.1370 C.3     1  UNL1        0.0436
      7 C          64.1366   90.0907   15.5071 C.2     1  UNL1       -0.0408
      8 C          63.7394   89.2674   16.6965 C.2     1  UNL1       -0.0083
      9 C          64.5384   91.5245   15.6879 C.3     1  UNL1        0.0436
     10 C          64.9356   92.3476   14.4986 C.3     1  UNL1        0.0993
     11 H          65.7331   94.3949   13.0191 H       1  UNL1        0.1579
     12 C          66.1273   94.8174   10.9305 C.ar    1  UNL1        0.1547
     13 C          65.2867   95.9878   10.5140 C.ar    1  UNL1        0.1333
     14 N          65.6839   96.8110    9.3247 N.ar    1  UNL1       -0.2378
     15 C          66.9218   96.4638    8.5519 C.ar    1  UNL1        0.1196
     16 C          67.7624   95.2934    8.9684 C.ar    1  UNL1        0.1210
     17 N          67.3651   94.4702   10.1577 N.ar    1  UNL1       -0.2257
     18 C          63.3376   87.8336   16.5157 C.ar    1  UNL1        0.0024
     19 C          62.3748   87.1979   17.4743 C.ar    1  UNL1        0.0002
     20 C          61.9730   85.7641   17.2936 C.ar    1  UNL1        0.0031
     21 C          62.5340   84.9659   16.1542 C.ar    1  UNL1        0.0376
     22 C          63.4968   85.6016   15.1956 C.ar    1  UNL1        0.1472
     23 C          63.8986   87.0354   15.3764 C.ar    1  UNL1        0.0375
     24 O          64.0579   84.8034   14.0562 O.3     1  UNL1       -0.4361
     25 C          63.5236   84.9996   12.6683 C.ar    1  UNL1        0.2297
     26 C          63.7941   83.9731   11.6085 C.ar    1  UNL1        0.0581
     27 C          63.2599   84.1692   10.2207 C.ar    1  UNL1        0.0102
     28 C          62.4552   85.3918    9.8926 C.ar    1  UNL1        0.0907
     29 C          62.1846   86.4182   10.9524 C.ar    1  UNL1        0.1059
     30 N          62.7188   86.2221   12.3403 N.ar    1  UNL1       -0.2099
     31 C          61.9209   85.5879    8.5048 C.3     1  UNL1        0.4200
     32 F          61.3866   85.7841    7.1170 F       1  UNL1       -0.1658
     33 F          60.5600   85.8705    9.0686 F       1  UNL1       -0.1658
     34 F          63.2818   85.3053    7.9409 F       1  UNL1       -0.1658
@<TRIPOS>BOND
     1     1     2    2
     2     2     3   am
     3     3    12    1
     4    12    13   ar
     5    13    14   ar
     6    14    15   ar
     7    15    16   ar
     8    16    17   ar
     9     2     4   am
    10     4     5    1
    11     5     6    1
    12     6     7    1
    13     7     8    2
    14     8    18    1
    15    18    19   ar
    16    19    20   ar
    17    20    21   ar
    18    21    22   ar
    19    22    24    1
    20    24    25    1
    21    25    26   ar
    22    26    27   ar
    23    27    28   ar
    24    28    31    1
    25    31    32    1
    26    31    33    1
    27    31    34    1
    28    28    29   ar
    29    29    30   ar
    30    22    23   ar
    31     7     9    1
    32     9    10    1
    33    17    12   ar
    34    10     4    1
    35    23    18   ar
    36    30    25   ar
    37     3    11    1
@<TRIPOS>MOLECULE
*****
 34 37 0 0 0
SMALL
GASTEIGER

@<TRIPOS>ATOM
      1 O          65.2973   91.8796   10.7038 O.2     1  UNL1       -0.2522
      2 C          65.2947   92.4654   12.0846 C.2     1  UNL1        0.3088
      3 N          65.7305   93.8847   12.2980 N.am    1  UNL1       -0.2522
      4 N          64.8564   91.6318   13.2522 N.am    1  UNL1       -0.2633
      5 C          64.4206   90.2125   13.0388 C.3     1  UNL1        0.0993
      6 C          63.9823   89.3790   14.2063 C.3     1  UNL1        0.0436
      7 C          63.9798   89.9648   15.5872 C.2     1  UNL1       -0.0408
      8 C          63.5414   89.1312   16.7547 C.2     1  UNL1       -0.0083
      9 C          64.4155   91.3841   15.8005 C.3     1  UNL1        0.0436
     10 C          64.8538   92.2176   14.6331 C.3     1  UNL1        0.0993
     11 H          65.7288   94.2692   13.2043 H       1  UNL1        0.1579
     12 C          66.1688   94.7183   11.1305 C.ar    1  UNL1        0.1547
     13 C          65.4466   95.9921   10.8052 C.ar    1  UNL1        0.1333
     14 N          65.8849   96.8256    9.6377 N.ar    1  UNL1       -0.2378
     15 C          67.0455   96.3854    8.7955 C.ar    1  UNL1        0.1196
     16 C          67.7678   95.1116    9.1209 C.ar    1  UNL1        0.1210
     17 N          67.3294   94.2781   10.2883 N.ar    1  UNL1       -0.2257
     18 C          63.1057   87.7119   16.5413 C.ar    1  UNL1        0.0024
     19 C          61.6981   87.3034   16.8607 C.ar    1  UNL1        0.0002
     20 C          61.2624   85.8840   16.6473 C.ar    1  UNL1        0.0031
     21 C          62.2341   84.8731   16.1145 C.ar    1  UNL1        0.0376
     22 C          63.6417   85.2816   15.7951 C.ar    1  UNL1        0.1472
     23 C          64.0774   86.7011   16.0085 C.ar    1  UNL1        0.0375
     24 O          64.6134   84.2708   15.2623 O.3     1  UNL1       -0.4361
     25 C          64.2127   83.3675   14.1338 C.ar    1  UNL1        0.2297
     26 C          64.5013   83.7647   12.7165 C.ar    1  UNL1        0.0581
     27 C          64.1007   82.8614   11.5880 C.ar    1  UNL1        0.0102
     28 C          63.4115   81.5609   11.8769 C.ar    1  UNL1        0.0907
     29 C          63.1229   81.1636   13.2943 C.ar    1  UNL1        0.1059
     30 N          63.5235   82.0669   14.4227 N.ar    1  UNL1       -0.2099
     31 C          63.0108   80.6575   10.7484 C.3     1  UNL1        0.4200
     32 F          62.6101   79.7541    9.6200 F       1  UNL1       -0.1658
     33 F          62.6895   79.5715   11.7319 F       1  UNL1       -0.1658
     34 F          63.3320   81.7435    9.7649 F       1  UNL1       -0.1658
@<TRIPOS>BOND
     1     1     2    2
     2     2     3   am
     3     3    12    1
     4    12    13   ar
     5    13    14   ar
     6    14    15   ar
     7    15    16   ar
     8    16    17   ar
     9     2     4   am
    10     4     5    1
    11     5     6    1
    12     6     7    1
    13     7     8    2
    14     8    18    1
    15    18    19   ar
    16    19    20   ar
    17    20    21   ar
    18    21    22   ar
    19    22    24    1
    20    24    25    1
    21    25    26   ar
    22    26    27   ar
    23    27    28   ar
    24    28    31    1
    25    31    32    1
    26    31    33    1
    27    31    34    1
    28    28    29   ar
    29    29    30   ar
    30    22    23   ar
    31     7     9    1
    32     9    10    1
    33    17    12   ar
    34    10     4    1
    35    23    18   ar
    36    30    25   ar
    37     3    11    1
@<TRIPOS>MOLECULE
*****
 34 37 0 0 0
SMALL
GASTEIGER

@<TRIPOS>ATOM
      1 O          59.7861   90.2278    9.0419 O.2     1  UNL1       -0.2522
      2 C          60.1440   88.9443    8.3530 C.2     1  UNL1        0.3088
      3 N          59.7831   88.7410    6.9114 N.am    1  UNL1       -0.2522
      4 N          60.8627   87.8642    9.1059 N.am    1  UNL1       -0.2633
      5 C          61.2236   88.0675   10.5475 C.3     1  UNL1        0.0993
      6 C          61.9423   86.9874   11.3003 C.3     1  UNL1        0.0436
      7 C          62.3002   85.7039   10.6114 C.2     1  UNL1       -0.0408
      8 C          63.0189   84.6237   11.3643 C.2     1  UNL1       -0.0083
      9 C          61.9393   85.5005    9.1698 C.3     1  UNL1        0.0436
     10 C          61.2206   86.5807    8.4170 C.3     1  UNL1        0.0993
     11 H          60.0180   87.8986    6.4593 H       1  UNL1        0.1579
     12 C          59.0644   89.8211    6.1585 C.ar    1  UNL1        0.1547
     13 C          57.5652   89.8708    6.1667 C.ar    1  UNL1        0.1333
     14 N          56.8466   90.9510    5.4139 N.ar    1  UNL1       -0.2378
     15 C          57.6270   91.9814    4.6529 C.ar    1  UNL1        0.1196
     16 C          59.1261   91.9317    4.6447 C.ar    1  UNL1        0.1210
     17 N          59.8448   90.8516    5.3975 N.ar    1  UNL1       -0.2257
     18 C          63.3798   84.8271   12.8059 C.ar    1  UNL1        0.0024
     19 C          63.7077   83.6462   13.6708 C.ar    1  UNL1        0.0002
     20 C          64.0686   83.8496   15.1124 C.ar    1  UNL1        0.0031
     21 C          64.1014   85.2339   15.6893 C.ar    1  UNL1        0.0376
     22 C          63.7735   86.4148   14.8244 C.ar    1  UNL1        0.1472
     23 C          63.4126   86.2114   13.3827 C.ar    1  UNL1        0.0375
     24 O          63.8064   87.7990   15.4012 O.3     1  UNL1       -0.4361
     25 C          64.0819   88.9756   14.5124 C.ar    1  UNL1        0.2297
     26 C          65.2602   89.8626   14.7862 C.ar    1  UNL1        0.0581
     27 C          65.5358   91.0390   13.8975 C.ar    1  UNL1        0.0102
     28 C          64.6332   91.3285   12.7350 C.ar    1  UNL1        0.0907
     29 C          63.4549   90.4415   12.4612 C.ar    1  UNL1        0.1059
     30 N          63.1793   89.2651   13.3500 N.ar    1  UNL1       -0.2099
     31 C          64.9088   92.5051   11.8462 C.3     1  UNL1        0.4200
     32 F          65.1843   93.6815   10.9574 F       1  UNL1       -0.1658
     33 F          64.1555   91.8401   10.7325 F       1  UNL1       -0.1658
     34 F          65.6621   93.1700   12.9599 F       1  UNL1       -0.1658
@<TRIPOS>BOND
     1     1     2    2
     2     2     3   am
     3     3    12    1
     4    12    13   ar
     5    13    14   ar
     6    14    15   ar
     7    15    16   ar
     8    16    17   ar
     9     2     4   am
    10     4     5    1
    11     5     6    1
    12     6     7    1
    13     7     8    2
    14     8    18    1
    15    18    19   ar
    16    19    20   ar
    17    20    21   ar
    18    21    22   ar
    19    22    24    1
    20    24    25    1
    21    25    26   ar
    22    26    27   ar
    23    27    28   ar
    24    28    31    1
    25    31    32    1
    26    31    33    1
    27    31    34    1
    28    28    29   ar
    29    29    30   ar
    30    22    23   ar
    31     7     9    1
    32     9    10    1
    33    17    12   ar
    34    10     4    1
    35    23    18   ar
    36    30    25   ar
    37     3    11    1
@<TRIPOS>MOLECULE
*****
 34 37 0 0 0
SMALL
GASTEIGER

@<TRIPOS>ATOM
      1 O          59.1348   88.9429    8.9925 O.2     1  UNL1       -0.2522
      2 C          60.1579   88.2115    8.1749 C.2     1  UNL1        0.3088
      3 N          60.3889   88.5965    6.7437 N.am    1  UNL1       -0.2522
      4 N          60.9498   87.0951    8.7885 N.am    1  UNL1       -0.2633
      5 C          60.7188   86.7101   10.2197 C.3     1  UNL1        0.0993
      6 C          61.5108   85.5938   10.8333 C.3     1  UNL1        0.0436
      7 C          62.5338   84.8624   10.0157 C.2     1  UNL1       -0.0408
      8 C          63.3258   83.7460   10.6293 C.2     1  UNL1       -0.0083
      9 C          62.7648   85.2474    8.5845 C.3     1  UNL1        0.0436
     10 C          61.9729   86.3637    7.9709 C.3     1  UNL1        0.0993
     11 H          61.0604   88.1164    6.2071 H       1  UNL1        0.1579
     12 C          59.5969   89.7129    6.1301 C.ar    1  UNL1        0.1547
     13 C          58.1031   89.7344    6.2638 C.ar    1  UNL1        0.1333
     14 N          57.3112   90.8507    5.6502 N.ar    1  UNL1       -0.2378
     15 C          58.0131   91.9456    4.9028 C.ar    1  UNL1        0.1196
     16 C          59.5070   91.9241    4.7691 C.ar    1  UNL1        0.1210
     17 N          60.2989   90.8077    5.3827 N.ar    1  UNL1       -0.2257
     18 C          63.0947   83.3610   12.0605 C.ar    1  UNL1        0.0024
     19 C          62.2346   82.1768   12.3892 C.ar    1  UNL1        0.0002
     20 C          62.0036   81.7919   13.8204 C.ar    1  UNL1        0.0031
     21 C          62.6326   82.5911   14.9230 C.ar    1  UNL1        0.0376
     22 C          63.4927   83.7753   14.5943 C.ar    1  UNL1        0.1472
     23 C          63.7237   84.1602   13.1630 C.ar    1  UNL1        0.0375
     24 O          64.1217   84.5745   15.6968 O.3     1  UNL1       -0.4361
     25 C          63.9851   86.0682   15.7124 C.ar    1  UNL1        0.2297
     26 C          64.6075   86.8896   14.6225 C.ar    1  UNL1        0.0581
     27 C          64.4709   88.3833   14.6380 C.ar    1  UNL1        0.0102
     28 C          63.7119   89.0555   15.7435 C.ar    1  UNL1        0.0907
     29 C          63.0895   88.2341   16.8334 C.ar    1  UNL1        0.1059
     30 N          63.2261   86.7404   16.8178 N.ar    1  UNL1       -0.2099
     31 C          63.5752   90.5492   15.7590 C.3     1  UNL1        0.4200
     32 F          63.4386   92.0429   15.7747 F       1  UNL1       -0.1658
     33 F          63.4753   90.5244   17.2555 F       1  UNL1       -0.1658
     34 F          63.6752   90.5740   14.2626 F       1  UNL1       -0.1658
@<TRIPOS>BOND
     1     1     2    2
     2     2     3   am
     3     3    12    1
     4    12    13   ar
     5    13    14   ar
     6    14    15   ar
     7    15    16   ar
     8    16    17   ar
     9     2     4   am
    10     4     5    1
    11     5     6    1
    12     6     7    1
    13     7     8    2
    14     8    18    1
    15    18    19   ar
    16    19    20   ar
    17    20    21   ar
    18    21    22   ar
    19    22    24    1
    20    24    25    1
    21    25    26   ar
    22    26    27   ar
    23    27    28   ar
    24    28    31    1
    25    31    32    1
    26    31    33    1
    27    31    34    1
    28    28    29   ar
    29    29    30   ar
    30    22    23   ar
    31     7     9    1
    32     9    10    1
    33    17    12   ar
    34    10     4    1
    35    23    18   ar
    36    30    25   ar
    37     3    11    1
@<TRIPOS>MOLECULE
*****
 34 37 0 0 0
SMALL
GASTEIGER

@<TRIPOS>ATOM
      1 O          64.2417   83.7895   14.2210 O.2     1  UNL1       -0.2522
      2 C          63.3975   84.4609   13.1786 C.2     1  UNL1        0.3088
      3 N          62.5310   83.6386   12.2715 N.am    1  UNL1       -0.2522
      4 N          63.4198   85.9546   13.0434 N.am    1  UNL1       -0.2633
      5 C          64.2863   86.7770   13.9505 C.3     1  UNL1        0.0993
      6 C          64.3086   88.2706   13.8153 C.3     1  UNL1        0.0436
      7 C          63.4644   88.9420   12.7729 C.2     1  UNL1       -0.0408
      8 C          63.4867   90.4358   12.6377 C.2     1  UNL1       -0.0083
      9 C          62.5979   88.1197   11.8658 C.3     1  UNL1        0.0436
     10 C          62.5756   86.6260   12.0010 C.3     1  UNL1        0.0993
     11 H          61.9769   84.0792   11.5873 H       1  UNL1        0.1579
     12 C          62.5087   82.1448   12.4067 C.ar    1  UNL1        0.1547
     13 C          63.0086   81.2827   11.2857 C.ar    1  UNL1        0.1333
     14 N          62.9863   79.7890   11.4209 N.ar    1  UNL1       -0.2378
     15 C          62.4640   79.1574   12.6772 C.ar    1  UNL1        0.1196
     16 C          61.9640   80.0195   13.7983 C.ar    1  UNL1        0.1210
     17 N          61.9864   81.5132   13.6630 N.ar    1  UNL1       -0.2257
     18 C          64.3532   91.2581   13.5448 C.ar    1  UNL1        0.0024
     19 C          64.3382   91.0101   15.0241 C.ar    1  UNL1        0.0002
     20 C          65.2047   91.8325   15.9312 C.ar    1  UNL1        0.0031
     21 C          66.0863   92.9028   15.3591 C.ar    1  UNL1        0.0376
     22 C          66.1013   93.1508   13.8798 C.ar    1  UNL1        0.1472
     23 C          65.2348   92.3284   12.9727 C.ar    1  UNL1        0.0375
     24 O          66.9828   94.2210   13.3077 O.3     1  UNL1       -0.4361
     25 C          66.7340   94.7358   11.9208 C.ar    1  UNL1        0.2297
     26 C          66.1175   96.0888   11.7224 C.ar    1  UNL1        0.0581
     27 C          65.8687   96.6035   10.3357 C.ar    1  UNL1        0.0102
     28 C          66.2363   95.7653    9.1474 C.ar    1  UNL1        0.0907
     29 C          66.8528   94.4123    9.3458 C.ar    1  UNL1        0.1059
     30 N          67.1016   93.8975   10.7325 N.ar    1  UNL1       -0.2099
     31 C          65.9875   96.2800    7.7606 C.3     1  UNL1        0.4200
     32 F          65.7386   96.7947    6.3738 F       1  UNL1       -0.1658
     33 F          64.6772   96.8559    8.2095 F       1  UNL1       -0.1658
     34 F          67.2977   95.7041    7.3116 F       1  UNL1       -0.1658
@<TRIPOS>BOND
     1     1     2    2
     2     2     3   am
     3     3    12    1
     4    12    13   ar
     5    13    14   ar
     6    14    15   ar
     7    15    16   ar
     8    16    17   ar
     9     2     4   am
    10     4     5    1
    11     5     6    1
    12     6     7    1
    13     7     8    2
    14     8    18    1
    15    18    19   ar
    16    19    20   ar
    17    20    21   ar
    18    21    22   ar
    19    22    24    1
    20    24    25    1
    21    25    26   ar
    22    26    27   ar
    23    27    28   ar
    24    28    31    1
    25    31    32    1
    26    31    33    1
    27    31    34    1
    28    28    29   ar
    29    29    30   ar
    30    22    23   ar
    31     7     9    1
    32     9    10    1
    33    17    12   ar
    34    10     4    1
    35    23    18   ar
    36    30    25   ar
    37     3    11    1
@<TRIPOS>MOLECULE
*****
 34 37 0 0 0
SMALL
GASTEIGER

@<TRIPOS>ATOM
      1 O          63.0148   88.2168   11.9494 O.2     1  UNL1       -0.2522
      2 C          62.0922   87.1851   11.3712 C.2     1  UNL1        0.3088
      3 N          61.9761   85.8364   12.0173 N.am    1  UNL1       -0.2522
      4 N          61.2856   87.5022   10.1469 N.am    1  UNL1       -0.2633
      5 C          61.4017   88.8509    9.5008 C.3     1  UNL1        0.0993
      6 C          60.5951   89.1680    8.2766 C.3     1  UNL1        0.0436
      7 C          59.6724   88.1363    7.6984 C.2     1  UNL1       -0.0408
      8 C          58.8658   88.4534    6.4741 C.2     1  UNL1       -0.0083
      9 C          59.5563   86.7876    8.3444 C.3     1  UNL1        0.0436
     10 C          60.3629   86.4706    9.5687 C.3     1  UNL1        0.0993
     11 H          61.3705   85.1593   11.6378 H       1  UNL1        0.1579
     12 C          62.7827   85.5193   13.2416 C.ar    1  UNL1        0.1547
     13 C          62.6403   84.1831   13.9082 C.ar    1  UNL1        0.1333
     14 N          63.4469   83.8661   15.1325 N.ar    1  UNL1       -0.2378
     15 C          64.3958   84.8852   15.6901 C.ar    1  UNL1        0.1196
     16 C          64.5382   86.2213   15.0235 C.ar    1  UNL1        0.1210
     17 N          63.7317   86.5383   13.7992 N.ar    1  UNL1       -0.2257
     18 C          58.9819   89.8022    5.8280 C.ar    1  UNL1        0.0024
     19 C          57.7775   90.6903    5.7242 C.ar    1  UNL1        0.0002
     20 C          57.8936   92.0390    5.0782 C.ar    1  UNL1        0.0031
     21 C          59.2142   92.4997    4.5359 C.ar    1  UNL1        0.0376
     22 C          60.4185   91.6116    4.6396 C.ar    1  UNL1        0.1472
     23 C          60.3024   90.2628    5.2857 C.ar    1  UNL1        0.0375
     24 O          61.7390   92.0722    4.0973 O.3     1  UNL1       -0.4361
     25 C          61.8655   92.4491    2.6509 C.ar    1  UNL1        0.2297
     26 C          63.1974   92.8601    2.0967 C.ar    1  UNL1        0.0581
     27 C          63.3239   93.2370    0.6504 C.ar    1  UNL1        0.0102
     28 C          62.1186   93.2029   -0.2417 C.ar    1  UNL1        0.0907
     29 C          60.7867   92.7918    0.3125 C.ar    1  UNL1        0.1059
     30 N          60.6602   92.4150    1.7588 N.ar    1  UNL1       -0.2099
     31 C          62.2451   93.5798   -1.6881 C.3     1  UNL1        0.4200
     32 F          62.3715   93.9566   -3.1345 F       1  UNL1       -0.1658
     33 F          60.7876   93.2892   -1.8913 F       1  UNL1       -0.1658
     34 F          63.7026   93.8703   -1.4850 F       1  UNL1       -0.1658
@<TRIPOS>BOND
     1     1     2    2
     2     2     3   am
     3     3    12    1
     4    12    13   ar
     5    13    14   ar
     6    14    15   ar
     7    15    16   ar
     8    16    17   ar
     9     2     4   am
    10     4     5    1
    11     5     6    1
    12     6     7    1
    13     7     8    2
    14     8    18    1
    15    18    19   ar
    16    19    20   ar
    17    20    21   ar
    18    21    22   ar
    19    22    24    1
    20    24    25    1
    21    25    26   ar
    22    26    27   ar
    23    27    28   ar
    24    28    31    1
    25    31    32    1
    26    31    33    1
    27    31    34    1
    28    28    29   ar
    29    29    30   ar
    30    22    23   ar
    31     7     9    1
    32     9    10    1
    33    17    12   ar
    34    10     4    1
    35    23    18   ar
    36    30    25   ar
    37     3    11    1
@<TRIPOS>MOLECULE
*****
 34 37 0 0 0
SMALL
GASTEIGER

@<TRIPOS>ATOM
      1 O          62.8238   83.8491   12.2367 O.2     1  UNL1       -0.2522
      2 C          62.9236   84.1866   13.6948 C.2     1  UNL1        0.3088
      3 N          62.6109   83.1458   14.7287 N.am    1  UNL1       -0.2522
      4 N          63.3363   85.5649   14.1191 N.am    1  UNL1       -0.2633
      5 C          63.6490   86.6057   13.0852 C.3     1  UNL1        0.0993
      6 C          64.0616   87.9840   13.5095 C.3     1  UNL1        0.0436
      7 C          64.1615   88.3215   14.9676 C.2     1  UNL1       -0.0408
      8 C          64.5741   89.6999   15.3918 C.2     1  UNL1       -0.0083
      9 C          63.8487   87.2807   16.0014 C.3     1  UNL1        0.0436
     10 C          63.4361   85.9025   15.5772 C.3     1  UNL1        0.0993
     11 H          62.6764   83.3673   15.6857 H       1  UNL1        0.1579
     12 C          62.1982   81.7674   14.3044 C.ar    1  UNL1        0.1547
     13 C          63.2104   80.8290   13.7173 C.ar    1  UNL1        0.1333
     14 N          62.7977   79.4507   13.2931 N.ar    1  UNL1       -0.2378
     15 C          61.3729   79.0109   13.4560 C.ar    1  UNL1        0.1196
     16 C          60.3608   79.9493   14.0432 C.ar    1  UNL1        0.1210
     17 N          60.7735   81.3276   14.4674 N.ar    1  UNL1       -0.2257
     18 C          64.8869   90.7407   14.3580 C.ar    1  UNL1        0.0024
     19 C          66.0601   91.6561   14.5463 C.ar    1  UNL1        0.0002
     20 C          66.3729   92.6969   13.5125 C.ar    1  UNL1        0.0031
     21 C          65.5124   92.8223   12.2902 C.ar    1  UNL1        0.0376
     22 C          64.3392   91.9068   12.1018 C.ar    1  UNL1        0.1472
     23 C          64.0264   90.8660   13.1357 C.ar    1  UNL1        0.0375
     24 O          63.4787   92.0321   10.8796 O.3     1  UNL1       -0.4361
     25 C          62.5796   90.9012   10.4762 C.ar    1  UNL1        0.2297
     26 C          63.1682   89.5792   10.0814 C.ar    1  UNL1        0.0581
     27 C          62.2691   88.4484    9.6780 C.ar    1  UNL1        0.0102
     28 C          60.7814   88.6395    9.6694 C.ar    1  UNL1        0.0907
     29 C          60.1928   89.9615   10.0641 C.ar    1  UNL1        0.1059
     30 N          61.0918   91.0924   10.4675 N.ar    1  UNL1       -0.2099
     31 C          59.8822   87.5087    9.2660 C.3     1  UNL1        0.4200
     32 F          58.9830   86.3779    8.8626 F       1  UNL1       -0.1658
     33 F          59.2393   88.3878    8.2346 F       1  UNL1       -0.1658
     34 F          60.5251   86.6295   10.2974 F       1  UNL1       -0.1658
@<TRIPOS>BOND
     1     1     2    2
     2     2     3   am
     3     3    12    1
     4    12    13   ar
     5    13    14   ar
     6    14    15   ar
     7    15    16   ar
     8    16    17   ar
     9     2     4   am
    10     4     5    1
    11     5     6    1
    12     6     7    1
    13     7     8    2
    14     8    18    1
    15    18    19   ar
    16    19    20   ar
    17    20    21   ar
    18    21    22   ar
    19    22    24    1
    20    24    25    1
    21    25    26   ar
    22    26    27   ar
    23    27    28   ar
    24    28    31    1
    25    31    32    1
    26    31    33    1
    27    31    34    1
    28    28    29   ar
    29    29    30   ar
    30    22    23   ar
    31     7     9    1
    32     9    10    1
    33    17    12   ar
    34    10     4    1
    35    23    18   ar
    36    30    25   ar
    37     3    11    1
@<TRIPOS>MOLECULE
*****
 34 37 0 0 0
SMALL
GASTEIGER

@<TRIPOS>ATOM
      1 O          65.9660   92.0836   11.7217 O.2     1  UNL1       -0.2522
      2 C          65.0013   91.4708   12.6933 C.2     1  UNL1        0.3088
      3 N          65.2546   91.5747   14.1681 N.am    1  UNL1       -0.2522
      4 N          63.7834   90.7542   12.1901 N.am    1  UNL1       -0.2633
      5 C          63.5302   90.6504   10.7153 C.3     1  UNL1        0.0993
      6 C          62.3123   89.9338   10.2121 C.3     1  UNL1        0.0436
      7 C          61.3476   89.3211   11.1837 C.2     1  UNL1       -0.0408
      8 C          60.1297   88.6044   10.6805 C.2     1  UNL1       -0.0083
      9 C          61.6009   89.4249   12.6585 C.3     1  UNL1        0.0436
     10 C          62.8188   90.1415   13.1617 C.3     1  UNL1        0.0993
     11 H          64.6214   91.1726   14.8058 H       1  UNL1        0.1579
     12 C          66.4725   92.2913   14.6713 C.ar    1  UNL1        0.1547
     13 C          66.6415   93.7585   14.4088 C.ar    1  UNL1        0.1333
     14 N          67.8593   94.4750   14.9120 N.ar    1  UNL1       -0.2378
     15 C          68.9083   93.7244   15.6778 C.ar    1  UNL1        0.1196
     16 C          68.7393   92.2573   15.9403 C.ar    1  UNL1        0.1210
     17 N          67.5214   91.5407   15.4371 N.ar    1  UNL1       -0.2257
     18 C          59.8765   88.5006    9.2057 C.ar    1  UNL1        0.0024
     19 C          60.0479   87.1848    8.5061 C.ar    1  UNL1        0.0002
     20 C          59.7946   87.0809    7.0313 C.ar    1  UNL1        0.0031
     21 C          59.3700   88.2929    6.2561 C.ar    1  UNL1        0.0376
     22 C          59.1986   89.6086    6.9556 C.ar    1  UNL1        0.1472
     23 C          59.4518   89.7125    8.4305 C.ar    1  UNL1        0.0375
     24 O          58.7740   90.8205    6.1804 O.3     1  UNL1       -0.4361
     25 C          59.6464   91.3519    5.0820 C.ar    1  UNL1        0.2297
     26 C          61.0624   90.8745    4.9516 C.ar    1  UNL1        0.0581
     27 C          61.9349   91.4059    3.8532 C.ar    1  UNL1        0.0102
     28 C          61.3913   92.4146    2.8853 C.ar    1  UNL1        0.0907
     29 C          59.9753   92.8919    3.0157 C.ar    1  UNL1        0.1059
     30 N          59.1029   92.3606    4.1140 N.ar    1  UNL1       -0.2099
     31 C          62.2638   92.9460    1.7868 C.3     1  UNL1        0.4200
     32 F          63.1362   93.4774    0.6884 F       1  UNL1       -0.1658
     33 F          61.4485   94.2044    1.7481 F       1  UNL1       -0.1658
     34 F          63.0791   91.6875    1.8255 F       1  UNL1       -0.1658
@<TRIPOS>BOND
     1     1     2    2
     2     2     3   am
     3     3    12    1
     4    12    13   ar
     5    13    14   ar
     6    14    15   ar
     7    15    16   ar
     8    16    17   ar
     9     2     4   am
    10     4     5    1
    11     5     6    1
    12     6     7    1
    13     7     8    2
    14     8    18    1
    15    18    19   ar
    16    19    20   ar
    17    20    21   ar
    18    21    22   ar
    19    22    24    1
    20    24    25    1
    21    25    26   ar
    22    26    27   ar
    23    27    28   ar
    24    28    31    1
    25    31    32    1
    26    31    33    1
    27    31    34    1
    28    28    29   ar
    29    29    30   ar
    30    22    23   ar
    31     7     9    1
    32     9    10    1
    33    17    12   ar
    34    10     4    1
    35    23    18   ar
    36    30    25   ar
    37     3    11    1
@<TRIPOS>MOLECULE
*****
 34 37 0 0 0
SMALL
GASTEIGER

@<TRIPOS>ATOM
      1 O          64.8671   91.6775   10.7138 O.2     1  UNL1       -0.2522
      2 C          65.0024   91.9440   12.1837 C.2     1  UNL1        0.3088
      3 N          65.4727   93.2854   12.6627 N.am    1  UNL1       -0.2522
      4 N          64.6672   90.8689   13.1748 N.am    1  UNL1       -0.2633
      5 C          64.1968   89.5276   12.6958 C.3     1  UNL1        0.0993
      6 C          63.8617   88.4526   13.6868 C.3     1  UNL1        0.0436
      7 C          63.9970   88.7191   15.1568 C.2     1  UNL1       -0.0408
      8 C          63.6618   87.6440   16.1478 C.2     1  UNL1       -0.0083
      9 C          64.4673   90.0604   15.6357 C.3     1  UNL1        0.0436
     10 C          64.8024   91.1354   14.6447 C.3     1  UNL1        0.0993
     11 H          65.5615   93.4602   13.6274 H       1  UNL1        0.1579
     12 C          65.8079   94.3604   11.6716 C.ar    1  UNL1        0.1547
     13 C          65.9296   94.0257   10.2146 C.ar    1  UNL1        0.1333
     14 N          66.2647   95.1007    9.2236 N.ar    1  UNL1       -0.2378
     15 C          66.4782   96.5104    9.6898 C.ar    1  UNL1        0.1196
     16 C          66.3565   96.8451   11.1469 C.ar    1  UNL1        0.1210
     17 N          66.0213   95.7700   12.1378 N.ar    1  UNL1       -0.2257
     18 C          63.1914   86.3027   15.6689 C.ar    1  UNL1        0.0024
     19 C          62.6167   85.3176   16.6432 C.ar    1  UNL1        0.0002
     20 C          62.1464   83.9762   16.1643 C.ar    1  UNL1        0.0031
     21 C          62.2507   83.6198   14.7109 C.ar    1  UNL1        0.0376
     22 C          62.8254   84.6049   13.7366 C.ar    1  UNL1        0.1472
     23 C          63.2958   85.9463   14.2156 C.ar    1  UNL1        0.0375
     24 O          62.9297   84.2486   12.2833 O.3     1  UNL1       -0.4361
     25 C          62.2650   85.1096   11.2503 C.ar    1  UNL1        0.2297
     26 C          62.5169   84.8618    9.7925 C.ar    1  UNL1        0.0581
     27 C          61.8522   85.7227    8.7596 C.ar    1  UNL1        0.0102
     28 C          60.9357   86.8314    9.1845 C.ar    1  UNL1        0.0907
     29 C          60.6838   87.0793   10.6423 C.ar    1  UNL1        0.1059
     30 N          61.3485   86.2183   11.6752 N.ar    1  UNL1       -0.2099
     31 C          60.2709   87.6924    8.1515 C.3     1  UNL1        0.4200
     32 F          59.6062   88.5533    7.1186 F       1  UNL1       -0.1658
     33 F          60.2223   86.5256    7.2103 F       1  UNL1       -0.1658
     34 F          60.3195   88.8593    9.0928 F       1  UNL1       -0.1658
@<TRIPOS>BOND
     1     1     2    2
     2     2     3   am
     3     3    12    1
     4    12    13   ar
     5    13    14   ar
     6    14    15   ar
     7    15    16   ar
     8    16    17   ar
     9     2     4   am
    10     4     5    1
    11     5     6    1
    12     6     7    1
    13     7     8    2
    14     8    18    1
    15    18    19   ar
    16    19    20   ar
    17    20    21   ar
    18    21    22   ar
    19    22    24    1
    20    24    25    1
    21    25    26   ar
    22    26    27   ar
    23    27    28   ar
    24    28    31    1
    25    31    32    1
    26    31    33    1
    27    31    34    1
    28    28    29   ar
    29    29    30   ar
    30    22    23   ar
    31     7     9    1
    32     9    10    1
    33    17    12   ar
    34    10     4    1
    35    23    18   ar
    36    30    25   ar
    37     3    11    1
