@<TRIPOS>MOLECULE
*****
 28 32 0 0 0
SMALL
GASTEIGER

@<TRIPOS>ATOM
      1 C          66.1526   94.2493   11.9378 C.ar    1  UNL1        0.1055
      2 C          66.5576   94.1819   13.3805 C.ar    1  UNL1        0.0180
      3 C          66.1276   93.0205   14.2267 C.ar    1  UNL1       -0.0032
      4 C          65.2927   91.9264   13.6302 C.ar    1  UNL1       -0.0238
      5 C          64.8877   91.9938   12.1875 C.ar    1  UNL1        0.0016
      6 C          65.3176   93.1552   11.3412 C.ar    1  UNL1        0.0161
      7 C          64.0527   90.8997   11.5910 C.3     1  UNL1        0.1345
      8 O          63.6477   90.9671   10.1483 O.3     1  UNL1       -0.3800
      9 C          63.6227   89.7382   12.4373 C.3     1  UNL1        0.0565
     10 C          64.0277   89.6709   13.8799 C.3     1  UNL1        0.0096
     11 C          64.8627   90.7649   14.4764 C.3     1  UNL1        0.0263
     12 H          63.1151   90.1877    9.9252 H       1  UNL1        0.2108
     13 C          62.7877   88.6441   11.8408 C.3     1  UNL1        0.1121
     14 C          62.9045   87.1801   12.1455 C.ar    1  UNL1       -0.0002
     15 C          63.8127   86.4150   13.0619 C.ar    1  UNL1       -0.0024
     16 C          63.6947   84.9229   13.1606 C.ar    1  UNL1       -0.0003
     17 C          62.6686   84.1959   12.3430 C.ar    1  UNL1        0.0000
     18 C          61.7604   84.9610   11.4267 C.ar    1  UNL1        0.0012
     19 C          61.8783   86.4531   11.3279 C.ar    1  UNL1        0.0152
     20 C          61.1273   87.4679   10.5179 C.ar    1  UNL1        0.0804
     21 C          60.0289   87.6458    9.5119 C.ar    1  UNL1        0.1177
     22 N          59.9121   89.1099    9.2072 N.ar    1  UNL1       -0.2223
     23 C          60.9383   89.8368   10.0248 C.ar    1  UNL1        0.1788
     24 N          61.6893   88.8220   10.8348 N.ar    1  UNL1       -0.3069
     25 C          67.0125   96.5723   10.2453 C.3     1  UNL1        0.1816
     26 S          66.5826   95.4108   11.0915 S.O2    1  UNL1        0.0104
     27 O          67.3255   94.4751   10.1846 O.2     1  UNL1       -0.1686
     28 O          65.8396   96.3465   11.9984 O.2     1  UNL1       -0.1686
@<TRIPOS>BOND
     1    25    26    1
     2    26    27    2
     3    26    28    2
     4    26     1    1
     5     1     2   ar
     6     2     3   ar
     7     3     4   ar
     8     4     5   ar
     9     5     6   ar
    10     5     7    1
    11     7     8    1
    12     7     9    1
    13     9    13    1
    14    13    14    1
    15    14    15   ar
    16    15    16   ar
    17    16    17   ar
    18    17    18   ar
    19    18    19   ar
    20    19    20    1
    21    20    21   ar
    22    21    22   ar
    23    22    23   ar
    24    23    24   ar
    25     9    10    1
    26    10    11    1
    27     6     1   ar
    28    13    24    1
    29    11     4    1
    30    19    14   ar
    31    24    20   ar
    32     8    12    1
@<TRIPOS>MOLECULE
*****
 28 32 0 0 0
SMALL
GASTEIGER

@<TRIPOS>ATOM
      1 C          66.1342   94.2219   11.9374 C.ar    1  UNL1        0.1055
      2 C          66.5195   94.2199   13.3871 C.ar    1  UNL1        0.0180
      3 C          66.1157   93.0756   14.2689 C.ar    1  UNL1       -0.0032
      4 C          65.3266   91.9334   13.7009 C.ar    1  UNL1       -0.0238
      5 C          64.9414   91.9354   12.2512 C.ar    1  UNL1        0.0016
      6 C          65.3452   93.0796   11.3694 C.ar    1  UNL1        0.0161
      7 C          64.1523   90.7931   11.6832 C.3     1  UNL1        0.1345
      8 O          63.7671   90.7951   10.2335 O.3     1  UNL1       -0.3800
      9 C          63.7485   89.6487   12.5650 C.3     1  UNL1        0.0565
     10 C          64.1337   89.6467   14.0146 C.3     1  UNL1        0.0096
     11 C          64.9228   90.7890   14.5826 C.3     1  UNL1        0.0263
     12 H          63.2642   89.9907   10.0315 H       1  UNL1        0.2108
     13 C          62.9594   88.5064   11.9970 C.3     1  UNL1        0.1121
     14 C          61.8996   88.6063   10.9403 C.ar    1  UNL1       -0.0002
     15 C          61.3430   89.7762   10.1843 C.ar    1  UNL1       -0.0024
     16 C          60.2637   89.5651    9.1643 C.ar    1  UNL1       -0.0003
     17 C          59.7409   88.1842    8.9003 C.ar    1  UNL1        0.0000
     18 C          60.2975   87.0143    9.6562 C.ar    1  UNL1        0.0012
     19 C          61.3768   87.2253   10.6762 C.ar    1  UNL1        0.0152
     20 C          62.1136   86.2721   11.5698 C.ar    1  UNL1        0.0804
     21 C          62.2458   84.8294   11.9589 C.ar    1  UNL1        0.1177
     22 N          63.3057   84.7296   13.0156 N.ar    1  UNL1       -0.2223
     23 C          63.8285   86.1106   13.2797 C.ar    1  UNL1        0.1788
     24 N          63.0917   87.0638   12.3861 N.ar    1  UNL1       -0.3069
     25 C          66.9419   96.5106   10.1740 C.3     1  UNL1        0.1816
     26 S          66.5381   95.3663   11.0556 S.O2    1  UNL1        0.0104
     27 O          67.2891   94.4179   10.1688 O.2     1  UNL1       -0.1686
     28 O          65.7871   96.3146   11.9425 O.2     1  UNL1       -0.1686
@<TRIPOS>BOND
     1    25    26    1
     2    26    27    2
     3    26    28    2
     4    26     1    1
     5     1     2   ar
     6     2     3   ar
     7     3     4   ar
     8     4     5   ar
     9     5     6   ar
    10     5     7    1
    11     7     8    1
    12     7     9    1
    13     9    13    1
    14    13    14    1
    15    14    15   ar
    16    15    16   ar
    17    16    17   ar
    18    17    18   ar
    19    18    19   ar
    20    19    20    1
    21    20    21   ar
    22    21    22   ar
    23    22    23   ar
    24    23    24   ar
    25     9    10    1
    26    10    11    1
    27     6     1   ar
    28    13    24    1
    29    11     4    1
    30    19    14   ar
    31    24    20   ar
    32     8    12    1
@<TRIPOS>MOLECULE
*****
 28 32 0 0 0
SMALL
GASTEIGER

@<TRIPOS>ATOM
      1 C          64.9829   91.1887   14.1800 C.ar    1  UNL1        0.1055
      2 C          64.2721   91.8639   13.0447 C.ar    1  UNL1        0.0180
      3 C          63.4529   91.0535   12.0846 C.ar    1  UNL1       -0.0032
      4 C          63.3443   89.5677   12.2598 C.ar    1  UNL1       -0.0238
      5 C          64.0551   88.8925   13.3950 C.ar    1  UNL1        0.0016
      6 C          64.8744   89.7029   14.3552 C.ar    1  UNL1        0.0161
      7 C          63.9465   87.4067   13.5702 C.3     1  UNL1        0.1345
      8 O          64.6573   86.7315   14.7055 O.3     1  UNL1       -0.3800
      9 C          63.1272   86.5961   12.6101 C.3     1  UNL1        0.0565
     10 C          62.4165   87.2714   11.4749 C.3     1  UNL1        0.0096
     11 C          62.5251   88.7571   11.2997 C.3     1  UNL1        0.0263
     12 H          64.4839   85.7776   14.6740 H       1  UNL1        0.2108
     13 C          63.0187   85.1103   12.7853 C.3     1  UNL1        0.1121
     14 C          63.2637   84.0774   11.7255 C.ar    1  UNL1       -0.0002
     15 C          63.6595   84.1933   10.2834 C.ar    1  UNL1       -0.0024
     16 C          63.8342   82.9571    9.4520 C.ar    1  UNL1       -0.0003
     17 C          63.6131   81.6051   10.0627 C.ar    1  UNL1        0.0000
     18 C          63.2172   81.4891   11.5048 C.ar    1  UNL1        0.0012
     19 C          63.0425   82.7253   12.3363 C.ar    1  UNL1        0.0152
     20 C          62.6609   82.9226   13.7734 C.ar    1  UNL1        0.0804
     21 C          62.2884   82.2089   15.0391 C.ar    1  UNL1        0.1177
     22 N          62.0434   83.2419   16.0988 N.ar    1  UNL1       -0.2223
     23 C          62.2645   84.5940   15.4881 C.ar    1  UNL1        0.1788
     24 N          62.6462   84.3967   14.0510 N.ar    1  UNL1       -0.3069
     25 C          66.6214   92.8098   16.1002 C.3     1  UNL1        0.1816
     26 S          65.8022   91.9993   15.1401 S.O2    1  UNL1        0.0104
     27 O          66.9976   91.8495   14.2465 O.2     1  UNL1       -0.1686
     28 O          64.6068   92.1491   16.0336 O.2     1  UNL1       -0.1686
@<TRIPOS>BOND
     1    25    26    1
     2    26    27    2
     3    26    28    2
     4    26     1    1
     5     1     2   ar
     6     2     3   ar
     7     3     4   ar
     8     4     5   ar
     9     5     6   ar
    10     5     7    1
    11     7     8    1
    12     7     9    1
    13     9    13    1
    14    13    14    1
    15    14    15   ar
    16    15    16   ar
    17    16    17   ar
    18    17    18   ar
    19    18    19   ar
    20    19    20    1
    21    20    21   ar
    22    21    22   ar
    23    22    23   ar
    24    23    24   ar
    25     9    10    1
    26    10    11    1
    27     6     1   ar
    28    13    24    1
    29    11     4    1
    30    19    14   ar
    31    24    20   ar
    32     8    12    1
@<TRIPOS>MOLECULE
*****
 28 32 0 0 0
SMALL
GASTEIGER

@<TRIPOS>ATOM
      1 C          62.8506   84.0560   12.4143 C.ar    1  UNL1        0.1055
      2 C          62.0100   84.2211   11.1830 C.ar    1  UNL1        0.0180
      3 C          61.7598   85.5902   10.6237 C.ar    1  UNL1       -0.0032
      4 C          62.3502   86.7942   11.2958 C.ar    1  UNL1       -0.0238
      5 C          63.1907   86.6291   12.5271 C.ar    1  UNL1        0.0016
      6 C          63.4410   85.2600   13.0864 C.ar    1  UNL1        0.0161
      7 C          63.7811   87.8332   13.1992 C.3     1  UNL1        0.1345
      8 O          64.6216   87.6681   14.4305 O.3     1  UNL1       -0.3800
      9 C          63.5309   89.2025   12.6399 C.3     1  UNL1        0.0565
     10 C          62.6903   89.3675   11.4086 C.3     1  UNL1        0.0096
     11 C          62.1000   88.1634   10.7365 C.3     1  UNL1        0.0263
     12 H          64.9226   88.5383   14.7356 H       1  UNL1        0.2108
     13 C          64.1212   90.4065   13.3120 C.3     1  UNL1        0.1121
     14 C          64.9133   91.4902   12.6424 C.ar    1  UNL1       -0.0002
     15 C          65.3287   91.6943   11.2157 C.ar    1  UNL1       -0.0024
     16 C          66.1356   92.9001   10.8347 C.ar    1  UNL1       -0.0003
     17 C          66.5270   93.9016   11.8805 C.ar    1  UNL1        0.0000
     18 C          66.1117   93.6975   13.3072 C.ar    1  UNL1        0.0012
     19 C          65.3048   92.4917   13.6882 C.ar    1  UNL1        0.0152
     20 C          64.7546   92.0271   15.0040 C.ar    1  UNL1        0.0804
     21 C          64.6565   92.3589   16.4636 C.ar    1  UNL1        0.1177
     22 N          63.8644   91.2752   17.1331 N.ar    1  UNL1       -0.2223
     23 C          63.4729   90.2736   16.0873 C.ar    1  UNL1        0.1788
     24 N          64.0231   90.7383   14.7715 N.ar    1  UNL1       -0.3069
     25 C          63.3510   81.3176   13.5328 C.3     1  UNL1        0.1816
     26 S          63.1008   82.6867   12.9736 S.O2    1  UNL1        0.0104
     27 O          63.4400   83.2920   14.3035 O.2     1  UNL1       -0.1686
     28 O          62.7616   82.0816   11.6437 O.2     1  UNL1       -0.1686
@<TRIPOS>BOND
     1    25    26    1
     2    26    27    2
     3    26    28    2
     4    26     1    1
     5     1     2   ar
     6     2     3   ar
     7     3     4   ar
     8     4     5   ar
     9     5     6   ar
    10     5     7    1
    11     7     8    1
    12     7     9    1
    13     9    13    1
    14    13    14    1
    15    14    15   ar
    16    15    16   ar
    17    16    17   ar
    18    17    18   ar
    19    18    19   ar
    20    19    20    1
    21    20    21   ar
    22    21    22   ar
    23    22    23   ar
    24    23    24   ar
    25     9    10    1
    26    10    11    1
    27     6     1   ar
    28    13    24    1
    29    11     4    1
    30    19    14   ar
    31    24    20   ar
    32     8    12    1
@<TRIPOS>MOLECULE
*****
 28 32 0 0 0
SMALL
GASTEIGER

@<TRIPOS>ATOM
      1 C          63.1464   82.6586   13.7840 C.ar    1  UNL1        0.1055
      2 C          63.3968   82.6456   15.2629 C.ar    1  UNL1        0.0180
      3 C          63.6689   83.9296   15.9890 C.ar    1  UNL1       -0.0032
      4 C          63.6906   85.2268   15.2360 C.ar    1  UNL1       -0.0238
      5 C          63.4403   85.2398   13.7571 C.ar    1  UNL1        0.0016
      6 C          63.1682   83.9558   13.0311 C.ar    1  UNL1        0.0161
      7 C          63.4620   86.5370   13.0041 C.3     1  UNL1        0.1345
      8 O          63.2116   86.5500   11.5252 O.3     1  UNL1       -0.3800
      9 C          63.7341   87.8211   13.7301 C.3     1  UNL1        0.0565
     10 C          63.9844   87.8080   15.2090 C.3     1  UNL1        0.0096
     11 C          63.9627   86.5109   15.9619 C.3     1  UNL1        0.0263
     12 H          63.2611   87.4614   11.1970 H       1  UNL1        0.2108
     13 C          63.7558   89.1183   12.9772 C.3     1  UNL1        0.1121
     14 C          64.6382   90.2947   13.2730 C.ar    1  UNL1       -0.0002
     15 C          65.6849   90.5256   14.3223 C.ar    1  UNL1       -0.0024
     16 C          66.4202   91.8319   14.3734 C.ar    1  UNL1       -0.0003
     17 C          66.1088   92.9075   13.3753 C.ar    1  UNL1        0.0000
     18 C          65.0620   92.6766   12.3260 C.ar    1  UNL1        0.0012
     19 C          64.3267   91.3703   12.2749 C.ar    1  UNL1        0.0152
     20 C          63.2519   90.8585   11.3622 C.ar    1  UNL1        0.0804
     21 C          62.3952   91.2070   10.1813 C.ar    1  UNL1        0.1177
     22 N          61.5129   90.0305    9.8855 N.ar    1  UNL1       -0.2223
     23 C          61.8243   88.9550   10.8836 C.ar    1  UNL1        0.1788
     24 N          62.8991   89.4667   11.7963 N.ar    1  UNL1       -0.3069
     25 C          62.6022   80.0904   12.3320 C.3     1  UNL1        0.1816
     26 S          62.8743   81.3744   13.0580 S.O2    1  UNL1        0.0104
     27 O          63.4591   80.6028   14.2037 O.2     1  UNL1       -0.1686
     28 O          62.2896   82.1461   11.9124 O.2     1  UNL1       -0.1686
@<TRIPOS>BOND
     1    25    26    1
     2    26    27    2
     3    26    28    2
     4    26     1    1
     5     1     2   ar
     6     2     3   ar
     7     3     4   ar
     8     4     5   ar
     9     5     6   ar
    10     5     7    1
    11     7     8    1
    12     7     9    1
    13     9    13    1
    14    13    14    1
    15    14    15   ar
    16    15    16   ar
    17    16    17   ar
    18    17    18   ar
    19    18    19   ar
    20    19    20    1
    21    20    21   ar
    22    21    22   ar
    23    22    23   ar
    24    23    24   ar
    25     9    10    1
    26    10    11    1
    27     6     1   ar
    28    13    24    1
    29    11     4    1
    30    19    14   ar
    31    24    20   ar
    32     8    12    1
@<TRIPOS>MOLECULE
*****
 28 32 0 0 0
SMALL
GASTEIGER

@<TRIPOS>ATOM
      1 C          63.0832   81.1138   12.0989 C.ar    1  UNL1        0.1055
      2 C          63.3946   80.8625   13.5445 C.ar    1  UNL1        0.0180
      3 C          63.5804   82.0173   14.4835 C.ar    1  UNL1       -0.0032
      4 C          63.4549   83.4236   13.9768 C.ar    1  UNL1       -0.0238
      5 C          63.1435   83.6749   12.5311 C.ar    1  UNL1        0.0016
      6 C          62.9577   82.5200   11.5922 C.ar    1  UNL1        0.0161
      7 C          63.0180   85.0811   12.0244 C.3     1  UNL1        0.1345
      8 O          62.7066   85.3324   10.5788 O.3     1  UNL1       -0.3800
      9 C          63.2038   86.2361   12.9634 C.3     1  UNL1        0.0565
     10 C          63.5152   85.9847   14.4089 C.3     1  UNL1        0.0096
     11 C          63.6407   84.5785   14.9157 C.3     1  UNL1        0.0263
     12 H          62.6607   86.2881   10.4193 H       1  UNL1        0.2108
     13 C          63.0783   87.6423   12.4567 C.3     1  UNL1        0.1121
     14 C          63.7419   88.8532   13.0427 C.ar    1  UNL1       -0.0002
     15 C          64.6596   89.0254   14.2167 C.ar    1  UNL1       -0.0024
     16 C          65.1762   90.3883   14.5711 C.ar    1  UNL1       -0.0003
     17 C          64.7751   91.5789   13.7516 C.ar    1  UNL1        0.0000
     18 C          63.8575   91.4066   12.5777 C.ar    1  UNL1        0.0012
     19 C          63.3409   90.0438   12.2232 C.ar    1  UNL1        0.0152
     20 C          62.4294   89.5687   11.1307 C.ar    1  UNL1        0.0804
     21 C          61.6181   90.0111    9.9490 C.ar    1  UNL1        0.1177
     22 N          60.9545   88.8001    9.3630 N.ar    1  UNL1       -0.2223
     23 C          61.3556   87.6095   10.1825 C.ar    1  UNL1        0.1788
     24 N          62.2671   88.0846   11.2750 N.ar    1  UNL1       -0.3069
     25 C          62.7115   78.8038   10.2210 C.3     1  UNL1        0.1816
     26 S          62.8974   79.9588   11.1599 S.O2    1  UNL1        0.0104
     27 O          63.2539   80.8429   10.0018 O.2     1  UNL1       -0.1686
     28 O          62.5409   79.0747   12.3180 O.2     1  UNL1       -0.1686
@<TRIPOS>BOND
     1    25    26    1
     2    26    27    2
     3    26    28    2
     4    26     1    1
     5     1     2   ar
     6     2     3   ar
     7     3     4   ar
     8     4     5   ar
     9     5     6   ar
    10     5     7    1
    11     7     8    1
    12     7     9    1
    13     9    13    1
    14    13    14    1
    15    14    15   ar
    16    15    16   ar
    17    16    17   ar
    18    17    18   ar
    19    18    19   ar
    20    19    20    1
    21    20    21   ar
    22    21    22   ar
    23    22    23   ar
    24    23    24   ar
    25     9    10    1
    26    10    11    1
    27     6     1   ar
    28    13    24    1
    29    11     4    1
    30    19    14   ar
    31    24    20   ar
    32     8    12    1
@<TRIPOS>MOLECULE
*****
 28 32 0 0 0
SMALL
GASTEIGER

@<TRIPOS>ATOM
      1 C          62.9854   81.5920   12.3701 C.ar    1  UNL1        0.1055
      2 C          63.7493   81.0348   11.2056 C.ar    1  UNL1        0.0180
      3 C          63.9747   81.8763    9.9846 C.ar    1  UNL1       -0.0032
      4 C          63.4361   83.2751    9.9280 C.ar    1  UNL1       -0.0238
      5 C          62.6722   83.8323   11.0924 C.ar    1  UNL1        0.0016
      6 C          62.4468   82.9908   12.3135 C.ar    1  UNL1        0.0161
      7 C          62.1336   85.2312   11.0359 C.3     1  UNL1        0.1345
      8 O          61.3697   85.7884   12.2003 O.3     1  UNL1       -0.3800
      9 C          62.3589   86.0728    9.8148 C.3     1  UNL1        0.0565
     10 C          63.1227   85.5156    8.6504 C.3     1  UNL1        0.0096
     11 C          63.6613   84.1167    8.7070 C.3     1  UNL1        0.0263
     12 H          61.0947   86.6971   12.0016 H       1  UNL1        0.2108
     13 C          61.8203   87.4716    9.7582 C.3     1  UNL1        0.1121
     14 C          62.2266   88.6094   10.6472 C.ar    1  UNL1       -0.0002
     15 C          63.2126   88.7002   11.7740 C.ar    1  UNL1       -0.0024
     16 C          63.4102   90.0007   12.4947 C.ar    1  UNL1       -0.0003
     17 C          62.6218   91.2105   12.0886 C.ar    1  UNL1        0.0000
     18 C          61.6359   91.1198   10.9619 C.ar    1  UNL1        0.0012
     19 C          61.4383   89.8193   10.2412 C.ar    1  UNL1        0.0152
     20 C          60.5447   89.4291    9.1012 C.ar    1  UNL1        0.0804
     21 C          59.5052   89.9358    8.1458 C.ar    1  UNL1        0.1177
     22 N          59.0990   88.7979    7.2568 N.ar    1  UNL1       -0.2223
     23 C          59.8873   87.5881    7.6628 C.ar    1  UNL1        0.1788
     24 N          60.7808   87.9782    8.8027 N.ar    1  UNL1       -0.3069
     25 C          62.5348   79.9087   14.8121 C.3     1  UNL1        0.1816
     26 S          62.7601   80.7503   13.5912 S.O2    1  UNL1        0.0104
     27 O          63.1357   81.9127   14.4616 O.2     1  UNL1       -0.1686
     28 O          62.3845   79.5880   12.7206 O.2     1  UNL1       -0.1686
@<TRIPOS>BOND
     1    25    26    1
     2    26    27    2
     3    26    28    2
     4    26     1    1
     5     1     2   ar
     6     2     3   ar
     7     3     4   ar
     8     4     5   ar
     9     5     6   ar
    10     5     7    1
    11     7     8    1
    12     7     9    1
    13     9    13    1
    14    13    14    1
    15    14    15   ar
    16    15    16   ar
    17    16    17   ar
    18    17    18   ar
    19    18    19   ar
    20    19    20    1
    21    20    21   ar
    22    21    22   ar
    23    22    23   ar
    24    23    24   ar
    25     9    10    1
    26    10    11    1
    27     6     1   ar
    28    13    24    1
    29    11     4    1
    30    19    14   ar
    31    24    20   ar
    32     8    12    1
@<TRIPOS>MOLECULE
*****
 28 32 0 0 0
SMALL
GASTEIGER

@<TRIPOS>ATOM
      1 C          60.9681   86.6324    8.1157 C.ar    1  UNL1        0.1055
      2 C          59.8494   87.5280    7.6728 C.ar    1  UNL1        0.0180
      3 C          59.5896   88.8168    8.3949 C.ar    1  UNL1       -0.0032
      4 C          60.4487   89.2099    9.5600 C.ar    1  UNL1       -0.0238
      5 C          61.5675   88.3143   10.0029 C.ar    1  UNL1        0.0016
      6 C          61.8272   87.0255    9.2808 C.ar    1  UNL1        0.0161
      7 C          62.4265   88.7075   11.1680 C.3     1  UNL1        0.1345
      8 O          63.5453   87.8118   11.6109 O.3     1  UNL1       -0.3800
      9 C          62.1668   89.9963   11.8902 C.3     1  UNL1        0.0565
     10 C          61.0481   90.8919   11.4473 C.3     1  UNL1        0.0096
     11 C          60.1890   90.4987   10.2822 C.3     1  UNL1        0.0263
     12 H          63.9974   88.2108   12.3707 H       1  UNL1        0.2108
     13 C          63.0259   90.3895   13.0553 C.3     1  UNL1        0.1121
     14 C          64.2362   91.2738   12.9995 C.ar    1  UNL1       -0.0002
     15 C          64.9104   91.9818   11.8619 C.ar    1  UNL1       -0.0024
     16 C          66.1322   92.8143   12.1153 C.ar    1  UNL1       -0.0003
     17 C          66.6798   92.9387   13.5062 C.ar    1  UNL1        0.0000
     18 C          66.0056   92.2307   14.6438 C.ar    1  UNL1        0.0012
     19 C          64.7839   91.3982   14.3904 C.ar    1  UNL1        0.0152
     20 C          63.9120   90.5908   15.3058 C.ar    1  UNL1        0.0804
     21 C          63.7116   90.1687   16.7312 C.ar    1  UNL1        0.1177
     22 N          62.5012   89.2843   16.7869 N.ar    1  UNL1       -0.2223
     23 C          61.9536   89.1599   15.3960 C.ar    1  UNL1        0.1788
     24 N          62.8255   89.9674   14.4807 N.ar    1  UNL1       -0.3069
     25 C          61.4875   84.0547    6.6714 C.3     1  UNL1        0.1816
     26 S          61.2278   85.3435    7.3935 S.O2    1  UNL1        0.0104
     27 O          62.6635   85.3907    7.8256 O.2     1  UNL1       -0.1686
     28 O          59.7922   85.2963    6.9616 O.2     1  UNL1       -0.1686
@<TRIPOS>BOND
     1    25    26    1
     2    26    27    2
     3    26    28    2
     4    26     1    1
     5     1     2   ar
     6     2     3   ar
     7     3     4   ar
     8     4     5   ar
     9     5     6   ar
    10     5     7    1
    11     7     8    1
    12     7     9    1
    13     9    13    1
    14    13    14    1
    15    14    15   ar
    16    15    16   ar
    17    16    17   ar
    18    17    18   ar
    19    18    19   ar
    20    19    20    1
    21    20    21   ar
    22    21    22   ar
    23    22    23   ar
    24    23    24   ar
    25     9    10    1
    26    10    11    1
    27     6     1   ar
    28    13    24    1
    29    11     4    1
    30    19    14   ar
    31    24    20   ar
    32     8    12    1
@<TRIPOS>MOLECULE
*****
 28 32 0 0 0
SMALL
GASTEIGER

@<TRIPOS>ATOM
      1 C          62.4842   84.5931   12.0392 C.ar    1  UNL1        0.1055
      2 C          61.6349   84.8287   10.8254 C.ar    1  UNL1        0.0180
      3 C          61.4851   86.2149   10.2723 C.ar    1  UNL1       -0.0032
      4 C          62.1847   87.3656   10.9330 C.ar    1  UNL1       -0.0238
      5 C          63.0340   87.1300   12.1468 C.ar    1  UNL1        0.0016
      6 C          63.1838   85.7438   12.6998 C.ar    1  UNL1        0.0161
      7 C          63.7336   88.2807   12.8074 C.3     1  UNL1        0.1345
      8 O          64.5829   88.0451   14.0212 O.3     1  UNL1       -0.3800
      9 C          63.5838   89.6670   12.2544 C.3     1  UNL1        0.0565
     10 C          62.7345   89.9025   11.0407 C.3     1  UNL1        0.0096
     11 C          62.0349   88.7518   10.3800 C.3     1  UNL1        0.0263
     12 H          64.9595   88.8874   14.3207 H       1  UNL1        0.2108
     13 C          64.2834   90.8177   12.9151 C.3     1  UNL1        0.1121
     14 C          64.3077   91.1073   14.3866 C.ar    1  UNL1       -0.0002
     15 C          63.6944   90.4005   15.5589 C.ar    1  UNL1       -0.0024
     16 C          63.8943   90.9357   16.9458 C.ar    1  UNL1       -0.0003
     17 C          64.7074   92.1778   17.1604 C.ar    1  UNL1        0.0000
     18 C          65.3207   92.8846   15.9882 C.ar    1  UNL1        0.0012
     19 C          65.1208   92.3494   14.6013 C.ar    1  UNL1        0.0152
     20 C          65.5991   92.8274   13.2623 C.ar    1  UNL1        0.0804
     21 C          66.3972   93.8906   12.5674 C.ar    1  UNL1        0.1177
     22 N          66.3729   93.6009   11.0958 N.ar    1  UNL1       -0.2223
     23 C          65.5598   92.3588   10.8812 C.ar    1  UNL1        0.1788
     24 N          65.0815   91.8808   12.2202 N.ar    1  UNL1       -0.3069
     25 C          62.7838   81.8205   13.1452 C.3     1  UNL1        0.1816
     26 S          62.6340   83.2068   12.5922 S.O2    1  UNL1        0.0104
     27 O          62.3803   83.7309   13.9746 O.2     1  UNL1       -0.1686
     28 O          62.8877   82.6828   11.2099 O.2     1  UNL1       -0.1686
@<TRIPOS>BOND
     1    25    26    1
     2    26    27    2
     3    26    28    2
     4    26     1    1
     5     1     2   ar
     6     2     3   ar
     7     3     4   ar
     8     4     5   ar
     9     5     6   ar
    10     5     7    1
    11     7     8    1
    12     7     9    1
    13     9    13    1
    14    13    14    1
    15    14    15   ar
    16    15    16   ar
    17    16    17   ar
    18    17    18   ar
    19    18    19   ar
    20    19    20    1
    21    20    21   ar
    22    21    22   ar
    23    22    23   ar
    24    23    24   ar
    25     9    10    1
    26    10    11    1
    27     6     1   ar
    28    13    24    1
    29    11     4    1
    30    19    14   ar
    31    24    20   ar
    32     8    12    1
