@<TRIPOS>MOLECULE
*****
 34 36 0 0 0
SMALL
GASTEIGER

@<TRIPOS>ATOM
      1 C          63.1289   89.5161   16.9964 C.3     1  UNL1        0.0262
      2 C          63.1782   88.0579   16.6482 C.2     1  UNL1       -0.0412
      3 C          63.9296   87.6021   15.4327 C.2     1  UNL1        0.0339
      4 C          63.9789   86.1439   15.0845 C.2     1  UNL1        0.2579
      5 O          64.7304   85.6881   13.8689 O.2     1  UNL1       -0.2690
      6 N          63.2768   85.1416   15.9518 N.am    1  UNL1       -0.2207
      7 C          62.5253   85.5974   17.1673 C.3     1  UNL1        0.1159
      8 C          62.4760   87.0556   17.5155 C.3     1  UNL1        0.0450
      9 N          63.3260   83.6834   15.6036 N.3     1  UNL1       -0.2220
     10 H          63.2513   83.1685   16.4809 H       1  UNL1        0.1456
     11 C          62.3062   83.1001   14.6710 C.3     1  UNL1        0.1141
     12 C          62.6953   82.7307   13.2702 C.ar    1  UNL1       -0.0048
     13 C          62.7239   81.2896   12.8551 C.ar    1  UNL1       -0.0029
     14 C          63.1129   80.9202   11.4543 C.ar    1  UNL1       -0.0003
     15 C          63.4735   81.9920   10.4687 C.ar    1  UNL1       -0.0000
     16 C          63.4449   83.4330   10.8839 C.ar    1  UNL1       -0.0003
     17 C          63.0558   83.8024   12.2846 C.ar    1  UNL1       -0.0029
     18 C          64.6319   88.6045   14.5654 C.3     1  UNL1        0.1153
     19 C          63.9411   89.1661   13.3582 C.2     1  UNL1        0.2273
     20 O          63.9862   90.6406   13.0865 O.2     1  UNL1       -0.2747
     21 N          63.2053   88.2533   12.4225 N.am    1  UNL1       -0.3002
     22 H          63.1757   87.2855   12.6008 H       1  UNL1        0.1498
     23 C          62.5146   88.8150   11.2154 C.3     1  UNL1        0.1161
     24 C          61.8367   87.8953   10.2434 C.ar    1  UNL1       -0.0044
     25 C          62.6473   86.9152    9.4481 C.ar    1  UNL1        0.0085
     26 C          61.9695   85.9955    8.4762 C.ar    1  UNL1        0.0574
     27 CL         62.7800   85.0155    7.6808 Cl      1  UNL1       -0.0823
     28 C          60.4811   86.0558    8.2995 C.ar    1  UNL1        0.0111
     29 C          59.6706   87.0358    9.0949 C.ar    1  UNL1       -0.0023
     30 C          60.3484   87.9556   10.0668 C.ar    1  UNL1       -0.0089
     31 C          59.5379   88.9356   10.8621 C.3     1  UNL1        0.0919
     32 N          59.2293   88.6585   12.3037 N.3     1  UNL1       -0.3175
     33 H          58.6225   87.8413   12.3705 H       1  UNL1        0.1192
     34 H          58.7582   89.4659   12.7118 H       1  UNL1        0.1192
@<TRIPOS>BOND
     1     1     2    1
     2     2     3    2
     3     3    18    1
     4    18    19    1
     5    19    20    2
     6    19    21   am
     7    21    23    1
     8    23    24    1
     9    24    25   ar
    10    25    26   ar
    11    26    27    1
    12    26    28   ar
    13    28    29   ar
    14    29    30   ar
    15    30    31    1
    16    31    32    1
    17     3     4    1
    18     4     5    2
    19     4     6   am
    20     6     9    1
    21     9    11    1
    22    11    12    1
    23    12    13   ar
    24    13    14   ar
    25    14    15   ar
    26    15    16   ar
    27    16    17   ar
    28     6     7    1
    29     7     8    1
    30     8     2    1
    31    30    24   ar
    32    17    12   ar
    33    21    22    1
    34    32    33    1
    35    32    34    1
    36     9    10    1
@<TRIPOS>MOLECULE
*****
 34 36 0 0 0
SMALL
GASTEIGER

@<TRIPOS>ATOM
      1 C          65.4417   91.9018   13.1692 C.3     1  UNL1        0.0262
      2 C          64.3009   91.3903   12.3405 C.2     1  UNL1       -0.0412
      3 C          63.1571   90.6766   12.9980 C.2     1  UNL1        0.0339
      4 C          62.0163   90.1651   12.1692 C.2     1  UNL1        0.2579
      5 O          60.8725   89.4514   12.8268 O.2     1  UNL1       -0.2690
      6 N          62.0193   90.3673   10.6829 N.am    1  UNL1       -0.2207
      7 C          63.1630   91.0810   10.0254 C.3     1  UNL1        0.1159
      8 C          64.3039   91.5925   10.8542 C.3     1  UNL1        0.0450
      9 N          60.8784   89.8558    9.8541 N.3     1  UNL1       -0.2220
     10 H          61.1610   89.9437    8.8780 H       1  UNL1        0.1456
     11 C          60.3889   88.4499   10.0383 C.3     1  UNL1        0.1141
     12 C          60.9582   87.3420    9.2026 C.ar    1  UNL1       -0.0048
     13 C          60.1479   86.7519    8.0867 C.ar    1  UNL1       -0.0029
     14 C          60.7173   85.6439    7.2510 C.ar    1  UNL1       -0.0003
     15 C          62.0969   85.1261    7.5313 C.ar    1  UNL1       -0.0000
     16 C          62.9071   85.7162    8.6472 C.ar    1  UNL1       -0.0003
     17 C          62.3378   86.8242    9.4829 C.ar    1  UNL1       -0.0029
     18 C          63.1541   90.4744   14.4843 C.3     1  UNL1        0.1153
     19 C          63.5371   89.1437   15.0610 C.2     1  UNL1        0.2273
     20 O          63.2133   88.8246   16.4904 O.2     1  UNL1       -0.2747
     21 N          64.2438   88.1321   14.2082 N.am    1  UNL1       -0.3002
     22 H          64.4564   88.3416   13.2700 H       1  UNL1        0.1498
     23 C          64.6268   86.8014   14.7848 C.3     1  UNL1        0.1161
     24 C          63.8519   85.5720   14.4132 C.ar    1  UNL1       -0.0044
     25 C          63.9196   85.0375   13.0132 C.ar    1  UNL1        0.0085
     26 C          63.1447   83.8081   12.6416 C.ar    1  UNL1        0.0574
     27 CL         63.2123   83.2737   11.2417 Cl      1  UNL1       -0.0823
     28 C          62.3022   83.1132   13.6698 C.ar    1  UNL1        0.0111
     29 C          62.2346   83.6476   15.0697 C.ar    1  UNL1       -0.0023
     30 C          63.0095   84.8771   15.4414 C.ar    1  UNL1       -0.0089
     31 C          62.9418   85.4115   16.8413 C.3     1  UNL1        0.0919
     32 N          61.7895   86.2762   17.2592 N.3     1  UNL1       -0.3175
     33 H          61.8189   87.1550   16.7422 H       1  UNL1        0.1192
     34 H          61.8531   86.4676   18.2590 H       1  UNL1        0.1192
@<TRIPOS>BOND
     1     1     2    1
     2     2     3    2
     3     3    18    1
     4    18    19    1
     5    19    20    2
     6    19    21   am
     7    21    23    1
     8    23    24    1
     9    24    25   ar
    10    25    26   ar
    11    26    27    1
    12    26    28   ar
    13    28    29   ar
    14    29    30   ar
    15    30    31    1
    16    31    32    1
    17     3     4    1
    18     4     5    2
    19     4     6   am
    20     6     9    1
    21     9    11    1
    22    11    12    1
    23    12    13   ar
    24    13    14   ar
    25    14    15   ar
    26    15    16   ar
    27    16    17   ar
    28     6     7    1
    29     7     8    1
    30     8     2    1
    31    30    24   ar
    32    17    12   ar
    33    21    22    1
    34    32    33    1
    35    32    34    1
    36     9    10    1
@<TRIPOS>MOLECULE
*****
 34 36 0 0 0
SMALL
GASTEIGER

@<TRIPOS>ATOM
      1 C          59.3984   87.3632    7.6504 C.3     1  UNL1        0.0262
      2 C          60.5213   86.6103    8.3002 C.2     1  UNL1       -0.0412
      3 C          60.8664   86.8704    9.7365 C.2     1  UNL1        0.0339
      4 C          61.9893   86.1174   10.3863 C.2     1  UNL1        0.2579
      5 O          62.3344   86.3776   11.8227 O.2     1  UNL1       -0.2690
      6 N          62.7672   85.1045    9.5997 N.am    1  UNL1       -0.2207
      7 C          62.4221   84.8444    8.1633 C.3     1  UNL1        0.1159
      8 C          61.2992   85.5973    7.5135 C.3     1  UNL1        0.0450
      9 N          63.8901   84.3516   10.2494 N.3     1  UNL1       -0.2220
     10 H          64.0249   84.7630   11.1730 H       1  UNL1        0.1456
     11 C          63.7830   82.8686   10.4474 C.3     1  UNL1        0.1141
     12 C          63.1848   82.3217   11.7096 C.ar    1  UNL1       -0.0048
     13 C          62.9036   80.8533   11.8314 C.ar    1  UNL1       -0.0029
     14 C          62.3054   80.3064   13.0935 C.ar    1  UNL1       -0.0003
     15 C          61.9882   81.2280   14.2339 C.ar    1  UNL1       -0.0000
     16 C          62.2694   82.6963   14.1120 C.ar    1  UNL1       -0.0003
     17 C          62.8676   83.2432   12.8499 C.ar    1  UNL1       -0.0029
     18 C          60.0886   87.8834   10.5233 C.3     1  UNL1        0.1153
     19 C          60.7120   89.2026   10.8710 C.2     1  UNL1        0.2273
     20 O          59.8580   90.3233   11.3856 O.2     1  UNL1       -0.2747
     21 N          62.1895   89.4011   10.7042 N.am    1  UNL1       -0.3002
     22 H          62.7500   88.6656   10.3665 H       1  UNL1        0.1498
     23 C          62.8129   90.7203   11.0520 C.3     1  UNL1        0.1161
     24 C          63.5755   90.8746   12.3344 C.ar    1  UNL1       -0.0044
     25 C          63.1330   90.1373   13.5635 C.ar    1  UNL1        0.0085
     26 C          63.8955   90.2916   14.8459 C.ar    1  UNL1        0.0574
     27 CL         63.4530   89.5543   16.0749 Cl      1  UNL1       -0.0823
     28 C          65.1007   91.1831   14.8993 C.ar    1  UNL1        0.0111
     29 C          65.5432   91.9204   13.6703 C.ar    1  UNL1       -0.0023
     30 C          64.7806   91.7662   12.3877 C.ar    1  UNL1       -0.0089
     31 C          65.2231   92.5034   11.1587 C.3     1  UNL1        0.0919
     32 N          65.5121   93.9736   11.2294 N.3     1  UNL1       -0.3175
     33 H          64.6501   94.4802   11.4312 H       1  UNL1        0.1192
     34 H          65.8907   94.2890   10.3363 H       1  UNL1        0.1192
@<TRIPOS>BOND
     1     1     2    1
     2     2     3    2
     3     3    18    1
     4    18    19    1
     5    19    20    2
     6    19    21   am
     7    21    23    1
     8    23    24    1
     9    24    25   ar
    10    25    26   ar
    11    26    27    1
    12    26    28   ar
    13    28    29   ar
    14    29    30   ar
    15    30    31    1
    16    31    32    1
    17     3     4    1
    18     4     5    2
    19     4     6   am
    20     6     9    1
    21     9    11    1
    22    11    12    1
    23    12    13   ar
    24    13    14   ar
    25    14    15   ar
    26    15    16   ar
    27    16    17   ar
    28     6     7    1
    29     7     8    1
    30     8     2    1
    31    30    24   ar
    32    17    12   ar
    33    21    22    1
    34    32    33    1
    35    32    34    1
    36     9    10    1
@<TRIPOS>MOLECULE
*****
 34 36 0 0 0
SMALL
GASTEIGER

@<TRIPOS>ATOM
      1 C          59.7844   87.2880    7.8991 C.3     1  UNL1        0.0262
      2 C          60.8750   86.4759    8.5324 C.2     1  UNL1       -0.0412
      3 C          61.1837   86.6424    9.9908 C.2     1  UNL1        0.0339
      4 C          62.2743   85.8303   10.6241 C.2     1  UNL1        0.2579
      5 O          62.5829   85.9968   12.0826 O.2     1  UNL1       -0.2690
      6 N          63.0562   84.8517    9.7990 N.am    1  UNL1       -0.2207
      7 C          62.7476   84.6852    8.3406 C.3     1  UNL1        0.1159
      8 C          61.6570   85.4973    7.7073 C.3     1  UNL1        0.0450
      9 N          64.1469   84.0396   10.4323 N.3     1  UNL1       -0.2220
     10 H          64.3121   84.4384   11.3564 H       1  UNL1        0.1456
     11 C          63.9676   82.5628   10.6236 C.3     1  UNL1        0.1141
     12 C          63.2526   82.0449   11.8363 C.ar    1  UNL1       -0.0048
     13 C          62.9147   82.9764   12.9626 C.ar    1  UNL1       -0.0029
     14 C          62.1998   82.4586   14.1753 C.ar    1  UNL1       -0.0003
     15 C          61.8226   81.0093   14.2617 C.ar    1  UNL1       -0.0000
     16 C          62.1604   80.0779   13.1355 C.ar    1  UNL1       -0.0003
     17 C          62.8754   80.5957   11.9228 C.ar    1  UNL1       -0.0029
     18 C          60.4017   87.6210   10.8160 C.3     1  UNL1        0.1153
     19 C          60.7632   89.0767   10.7956 C.2     1  UNL1        0.2273
     20 O          59.6848   90.1180   10.8476 O.2     1  UNL1       -0.2747
     21 N          62.2030   89.4910   10.7232 N.am    1  UNL1       -0.3002
     22 H          62.9108   88.8075   10.6890 H       1  UNL1        0.1498
     23 C          62.5645   90.9466   10.7028 C.3     1  UNL1        0.1161
     24 C          63.8278   91.4149   11.3621 C.ar    1  UNL1       -0.0044
     25 C          64.7763   92.3070   10.6174 C.ar    1  UNL1        0.0085
     26 C          66.0396   92.7754   11.2767 C.ar    1  UNL1        0.0574
     27 CL         66.9880   93.6674   10.5319 Cl      1  UNL1       -0.0823
     28 C          66.3544   92.3517   12.6807 C.ar    1  UNL1        0.0111
     29 C          65.4060   91.4596   13.4254 C.ar    1  UNL1       -0.0023
     30 C          64.1426   90.9912   12.7661 C.ar    1  UNL1       -0.0089
     31 C          63.1942   90.0991   13.5109 C.3     1  UNL1        0.0919
     32 N          63.3749   88.6107   13.4686 N.3     1  UNL1       -0.3175
     33 H          63.2142   88.2755   12.5187 H       1  UNL1        0.1192
     34 H          62.7085   88.1692   14.1022 H       1  UNL1        0.1192
@<TRIPOS>BOND
     1     1     2    1
     2     2     3    2
     3     3    18    1
     4    18    19    1
     5    19    20    2
     6    19    21   am
     7    21    23    1
     8    23    24    1
     9    24    25   ar
    10    25    26   ar
    11    26    27    1
    12    26    28   ar
    13    28    29   ar
    14    29    30   ar
    15    30    31    1
    16    31    32    1
    17     3     4    1
    18     4     5    2
    19     4     6   am
    20     6     9    1
    21     9    11    1
    22    11    12    1
    23    12    13   ar
    24    13    14   ar
    25    14    15   ar
    26    15    16   ar
    27    16    17   ar
    28     6     7    1
    29     7     8    1
    30     8     2    1
    31    30    24   ar
    32    17    12   ar
    33    21    22    1
    34    32    33    1
    35    32    34    1
    36     9    10    1
@<TRIPOS>MOLECULE
*****
 34 36 0 0 0
SMALL
GASTEIGER

@<TRIPOS>ATOM
      1 C          63.0960   80.4680   10.0812 C.3     1  UNL1        0.0262
      2 C          63.0675   81.2308   11.3725 C.2     1  UNL1       -0.0412
      3 C          63.4912   82.6693   11.4033 C.2     1  UNL1        0.0339
      4 C          63.4627   83.4321   12.6946 C.2     1  UNL1        0.2579
      5 O          63.8865   84.8707   12.7254 O.2     1  UNL1       -0.2690
      6 N          63.0105   82.7563   13.9550 N.am    1  UNL1       -0.2207
      7 C          62.5867   81.3178   13.9242 C.3     1  UNL1        0.1159
      8 C          62.6152   80.5550   12.6329 C.3     1  UNL1        0.0450
      9 N          62.9820   83.5191   15.2463 N.3     1  UNL1       -0.2220
     10 H          62.9510   82.8280   15.9959 H       1  UNL1        0.1456
     11 C          64.0926   84.4704   15.5801 C.3     1  UNL1        0.1141
     12 C          63.7775   85.8850   15.9670 C.ar    1  UNL1       -0.0048
     13 C          62.9436   86.1621   17.1827 C.ar    1  UNL1       -0.0029
     14 C          62.6285   87.5767   17.5695 C.ar    1  UNL1       -0.0003
     15 C          63.1474   88.7142   16.7407 C.ar    1  UNL1       -0.0000
     16 C          63.9813   88.4371   15.5251 C.ar    1  UNL1       -0.0003
     17 C          64.2964   87.0225   15.1382 C.ar    1  UNL1       -0.0029
     18 C          63.9435   83.3452   10.1428 C.3     1  UNL1        0.1153
     19 C          63.0730   84.3790    9.4923 C.2     1  UNL1        0.2273
     20 O          63.1606   84.6099    8.0127 O.2     1  UNL1       -0.2747
     21 N          62.1147   85.1820   10.3212 N.am    1  UNL1       -0.3002
     22 H          62.0572   85.0305   11.2923 H       1  UNL1        0.1498
     23 C          61.2442   86.2158    9.6706 C.3     1  UNL1        0.1161
     24 C          61.4174   87.6657   10.0136 C.ar    1  UNL1       -0.0044
     25 C          62.3892   88.0729   11.0814 C.ar    1  UNL1        0.0085
     26 C          62.5624   89.5228   11.4244 C.ar    1  UNL1        0.0574
     27 CL         63.5341   89.9299   12.4921 Cl      1  UNL1       -0.0823
     28 C          61.7640   90.5656   10.6998 C.ar    1  UNL1        0.0111
     29 C          60.7923   90.1584    9.6321 C.ar    1  UNL1       -0.0023
     30 C          60.6190   88.7085    9.2890 C.ar    1  UNL1       -0.0089
     31 C          59.6473   88.3013    8.2213 C.3     1  UNL1        0.0919
     32 N          59.4360   89.1807    7.0246 N.3     1  UNL1       -0.3175
     33 H          59.0082   90.0585    7.3190 H       1  UNL1        0.1192
     34 H          58.8221   88.7092    6.3604 H       1  UNL1        0.1192
@<TRIPOS>BOND
     1     1     2    1
     2     2     3    2
     3     3    18    1
     4    18    19    1
     5    19    20    2
     6    19    21   am
     7    21    23    1
     8    23    24    1
     9    24    25   ar
    10    25    26   ar
    11    26    27    1
    12    26    28   ar
    13    28    29   ar
    14    29    30   ar
    15    30    31    1
    16    31    32    1
    17     3     4    1
    18     4     5    2
    19     4     6   am
    20     6     9    1
    21     9    11    1
    22    11    12    1
    23    12    13   ar
    24    13    14   ar
    25    14    15   ar
    26    15    16   ar
    27    16    17   ar
    28     6     7    1
    29     7     8    1
    30     8     2    1
    31    30    24   ar
    32    17    12   ar
    33    21    22    1
    34    32    33    1
    35    32    34    1
    36     9    10    1
@<TRIPOS>MOLECULE
*****
 34 36 0 0 0
SMALL
GASTEIGER

@<TRIPOS>ATOM
      1 C          62.6695   80.4681   13.4430 C.3     1  UNL1        0.0262
      2 C          62.9288   81.4880   12.3741 C.2     1  UNL1       -0.0412
      3 C          62.5756   82.9267   12.6087 C.2     1  UNL1        0.0339
      4 C          62.8349   83.9467   11.5399 C.2     1  UNL1        0.2579
      5 O          62.4816   85.3855   11.7746 O.2     1  UNL1       -0.2690
      6 N          63.4475   83.5278   10.2363 N.am    1  UNL1       -0.2207
      7 C          63.8008   82.0891   10.0017 C.3     1  UNL1        0.1159
      8 C          63.5414   81.0691   11.0706 C.3     1  UNL1        0.0450
      9 N          63.7068   84.5477    9.1675 N.3     1  UNL1       -0.2220
     10 H          64.5459   84.2475    8.6713 H       1  UNL1        0.1456
     11 C          62.6636   84.8244    8.1258 C.3     1  UNL1        0.1141
     12 C          61.6855   85.9445    8.3229 C.ar    1  UNL1       -0.0048
     13 C          60.3388   85.8888    7.6645 C.ar    1  UNL1       -0.0029
     14 C          59.3607   87.0089    7.8616 C.ar    1  UNL1       -0.0003
     15 C          59.7294   88.1846    8.7171 C.ar    1  UNL1       -0.0000
     16 C          61.0760   88.2403    9.3754 C.ar    1  UNL1       -0.0003
     17 C          62.0541   87.1202    9.1783 C.ar    1  UNL1       -0.0029
     18 C          61.9629   83.3457   13.9123 C.3     1  UNL1        0.1153
     19 C          62.7451   84.1945   14.8702 C.2     1  UNL1        0.2273
     20 O          62.6487   83.9435   16.3459 O.2     1  UNL1       -0.2747
     21 N          63.6238   85.2945   14.3523 N.am    1  UNL1       -0.3002
     22 H          63.6870   85.4593   13.3838 H       1  UNL1        0.1498
     23 C          64.4060   86.1434   15.3102 C.3     1  UNL1        0.1161
     24 C          64.1036   87.6074   15.4341 C.ar    1  UNL1       -0.0044
     25 C          64.5998   88.5665   14.3929 C.ar    1  UNL1        0.0085
     26 C          64.2974   90.0304   14.5168 C.ar    1  UNL1        0.0574
     27 CL         64.7936   90.9894   13.4756 Cl      1  UNL1       -0.0823
     28 C          63.4989   90.5353   15.6819 C.ar    1  UNL1        0.0111
     29 C          63.0027   89.5763   16.7230 C.ar    1  UNL1       -0.0023
     30 C          63.3051   88.1123   16.5992 C.ar    1  UNL1       -0.0089
     31 C          62.8089   87.1533   17.6403 C.3     1  UNL1        0.0919
     32 N          61.5481   86.3758   17.4039 N.3     1  UNL1       -0.3175
     33 H          60.7550   87.0163   17.3700 H       1  UNL1        0.1192
     34 H          61.4133   85.7076   18.1626 H       1  UNL1        0.1192
@<TRIPOS>BOND
     1     1     2    1
     2     2     3    2
     3     3    18    1
     4    18    19    1
     5    19    20    2
     6    19    21   am
     7    21    23    1
     8    23    24    1
     9    24    25   ar
    10    25    26   ar
    11    26    27    1
    12    26    28   ar
    13    28    29   ar
    14    29    30   ar
    15    30    31    1
    16    31    32    1
    17     3     4    1
    18     4     5    2
    19     4     6   am
    20     6     9    1
    21     9    11    1
    22    11    12    1
    23    12    13   ar
    24    13    14   ar
    25    14    15   ar
    26    15    16   ar
    27    16    17   ar
    28     6     7    1
    29     7     8    1
    30     8     2    1
    31    30    24   ar
    32    17    12   ar
    33    21    22    1
    34    32    33    1
    35    32    34    1
    36     9    10    1
@<TRIPOS>MOLECULE
*****
 34 36 0 0 0
SMALL
GASTEIGER

@<TRIPOS>ATOM
      1 C          62.8353   85.0341    7.4491 C.3     1  UNL1        0.0262
      2 C          62.8253   85.0439    8.9490 C.2     1  UNL1       -0.0412
      3 C          61.9992   86.0552    9.6870 C.2     1  UNL1        0.0339
      4 C          61.9892   86.0650   11.1869 C.2     1  UNL1        0.2579
      5 O          61.1631   87.0764   11.9249 O.2     1  UNL1       -0.2690
      6 N          62.8054   85.0633   11.9489 N.am    1  UNL1       -0.2207
      7 C          63.6315   84.0519   11.2109 C.3     1  UNL1        0.1159
      8 C          63.6414   84.0422    9.7110 C.3     1  UNL1        0.0450
      9 N          62.7954   85.0730   13.4488 N.3     1  UNL1       -0.2220
     10 H          61.8179   85.1205   13.7365 H       1  UNL1        0.1456
     11 C          63.4163   83.9397   14.2104 C.3     1  UNL1        0.1141
     12 C          62.8945   82.5442   14.0362 C.ar    1  UNL1       -0.0048
     13 C          63.8107   81.4545   13.5636 C.ar    1  UNL1       -0.0029
     14 C          63.2889   80.0590   13.3895 C.ar    1  UNL1       -0.0003
     15 C          61.8510   79.7532   13.6880 C.ar    1  UNL1       -0.0000
     16 C          60.9350   80.8429   14.1606 C.ar    1  UNL1       -0.0003
     17 C          61.4567   82.2384   14.3347 C.ar    1  UNL1       -0.0029
     18 C          61.1831   87.0569    8.9250 C.3     1  UNL1        0.1153
     19 C          61.1290   88.4843    9.3829 C.2     1  UNL1        0.2273
     20 O          59.8934   89.3013    9.1471 O.2     1  UNL1       -0.2747
     21 N          62.3107   89.0947   10.0766 N.am    1  UNL1       -0.3002
     22 H          63.1217   88.5585   10.2314 H       1  UNL1        0.1498
     23 C          62.2566   90.5220   10.5345 C.3     1  UNL1        0.1161
     24 C          63.4709   91.1621   11.1393 C.ar    1  UNL1       -0.0044
     25 C          64.2725   92.1501   10.3447 C.ar    1  UNL1        0.0085
     26 C          65.4867   92.7901   10.9495 C.ar    1  UNL1        0.0574
     27 CL         66.2882   93.7781   10.1548 Cl      1  UNL1       -0.0823
     28 C          65.8995   92.4423   12.3490 C.ar    1  UNL1        0.0111
     29 C          65.0980   91.4543   13.1437 C.ar    1  UNL1       -0.0023
     30 C          63.8836   90.8142   12.5389 C.ar    1  UNL1       -0.0089
     31 C          63.0821   89.8263   13.3335 C.3     1  UNL1        0.0919
     32 N          63.4592   88.3745   13.3246 N.3     1  UNL1       -0.3175
     33 H          63.3209   87.9930   12.3888 H       1  UNL1        0.1192
     34 H          62.8740   87.8672   13.9884 H       1  UNL1        0.1192
@<TRIPOS>BOND
     1     1     2    1
     2     2     3    2
     3     3    18    1
     4    18    19    1
     5    19    20    2
     6    19    21   am
     7    21    23    1
     8    23    24    1
     9    24    25   ar
    10    25    26   ar
    11    26    27    1
    12    26    28   ar
    13    28    29   ar
    14    29    30   ar
    15    30    31    1
    16    31    32    1
    17     3     4    1
    18     4     5    2
    19     4     6   am
    20     6     9    1
    21     9    11    1
    22    11    12    1
    23    12    13   ar
    24    13    14   ar
    25    14    15   ar
    26    15    16   ar
    27    16    17   ar
    28     6     7    1
    29     7     8    1
    30     8     2    1
    31    30    24   ar
    32    17    12   ar
    33    21    22    1
    34    32    33    1
    35    32    34    1
    36     9    10    1
@<TRIPOS>MOLECULE
*****
 34 36 0 0 0
SMALL
GASTEIGER

@<TRIPOS>ATOM
      1 C          64.4086   82.9583   10.0358 C.3     1  UNL1        0.0262
      2 C          63.4119   84.0631    9.8459 C.2     1  UNL1       -0.0412
      3 C          62.6416   84.5885   11.0208 C.2     1  UNL1        0.0339
      4 C          61.6450   85.6933   10.8309 C.2     1  UNL1        0.2579
      5 O          60.8747   86.2187   12.0060 O.2     1  UNL1       -0.2690
      6 N          61.4186   86.2727    9.4660 N.am    1  UNL1       -0.2207
      7 C          62.1888   85.7473    8.2910 C.3     1  UNL1        0.1159
      8 C          63.1855   84.6425    8.4810 C.3     1  UNL1        0.0450
      9 N          60.4219   87.3775    9.2760 N.3     1  UNL1       -0.2220
     10 H          59.8834   87.4400   10.1401 H       1  UNL1        0.1456
     11 C          60.8926   88.7657    8.9578 C.3     1  UNL1        0.1141
     12 C          61.6643   89.5484    9.9785 C.ar    1  UNL1       -0.0048
     13 C          62.6994   90.5404    9.5373 C.ar    1  UNL1       -0.0029
     14 C          63.4712   91.3231   10.5579 C.ar    1  UNL1       -0.0003
     15 C          63.2078   91.1139   12.0198 C.ar    1  UNL1       -0.0000
     16 C          62.1727   90.1220   12.4609 C.ar    1  UNL1       -0.0003
     17 C          61.4009   89.3392   11.4402 C.ar    1  UNL1       -0.0029
     18 C          62.8680   84.0091   12.3858 C.3     1  UNL1        0.1153
     19 C          63.8319   84.6659   13.3290 C.2     1  UNL1        0.2273
     20 O          65.1288   83.9918   13.6658 O.2     1  UNL1       -0.2747
     21 N          63.4988   85.9969   13.9354 N.am    1  UNL1       -0.3002
     22 H          62.6476   86.4393   13.7143 H       1  UNL1        0.1498
     23 C          64.4627   86.6537   14.8785 C.3     1  UNL1        0.1161
     24 C          64.2334   88.0687   15.3202 C.ar    1  UNL1       -0.0044
     25 C          64.9533   89.1936   14.6373 C.ar    1  UNL1        0.0085
     26 C          64.7239   90.6086   15.0790 C.ar    1  UNL1        0.0574
     27 CL         65.4438   91.7334   14.3960 Cl      1  UNL1       -0.0823
     28 C          63.7747   90.8987   16.2036 C.ar    1  UNL1        0.0111
     29 C          63.0548   89.7739   16.8865 C.ar    1  UNL1       -0.0023
     30 C          63.2841   88.3588   16.4448 C.ar    1  UNL1       -0.0089
     31 C          62.5642   87.2340   17.1278 C.3     1  UNL1        0.0919
     32 N          62.7852   86.9799   18.5895 N.3     1  UNL1       -0.3175
     33 H          63.7491   86.6826   18.7410 H       1  UNL1        0.1192
     34 H          62.1497   86.2480   18.9072 H       1  UNL1        0.1192
@<TRIPOS>BOND
     1     1     2    1
     2     2     3    2
     3     3    18    1
     4    18    19    1
     5    19    20    2
     6    19    21   am
     7    21    23    1
     8    23    24    1
     9    24    25   ar
    10    25    26   ar
    11    26    27    1
    12    26    28   ar
    13    28    29   ar
    14    29    30   ar
    15    30    31    1
    16    31    32    1
    17     3     4    1
    18     4     5    2
    19     4     6   am
    20     6     9    1
    21     9    11    1
    22    11    12    1
    23    12    13   ar
    24    13    14   ar
    25    14    15   ar
    26    15    16   ar
    27    16    17   ar
    28     6     7    1
    29     7     8    1
    30     8     2    1
    31    30    24   ar
    32    17    12   ar
    33    21    22    1
    34    32    33    1
    35    32    34    1
    36     9    10    1
@<TRIPOS>MOLECULE
*****
 34 36 0 0 0
SMALL
GASTEIGER

@<TRIPOS>ATOM
      1 C          64.4922   83.4792   15.4591 C.3     1  UNL1        0.0262
      2 C          63.8743   84.0677   14.2255 C.2     1  UNL1       -0.0412
      3 C          63.9214   85.5494   13.9968 C.2     1  UNL1        0.0339
      4 C          63.3035   86.1379   12.7632 C.2     1  UNL1        0.2579
      5 O          63.3506   87.6197   12.5345 O.2     1  UNL1       -0.2690
      6 N          62.6384   85.2447   11.7582 N.am    1  UNL1       -0.2207
      7 C          62.5913   83.7630   11.9869 C.3     1  UNL1        0.1159
      8 C          63.2092   83.1745   13.2205 C.3     1  UNL1        0.0450
      9 N          62.0205   85.8332   10.5246 N.3     1  UNL1       -0.2220
     10 H          61.7821   85.0522    9.9134 H       1  UNL1        0.1456
     11 C          60.7923   86.6871   10.6352 C.3     1  UNL1        0.1141
     12 C          60.2809   87.4248    9.4335 C.ar    1  UNL1       -0.0048
     13 C          60.5359   88.8963    9.2921 C.ar    1  UNL1       -0.0029
     14 C          60.0246   89.6340    8.0903 C.ar    1  UNL1       -0.0003
     15 C          59.2583   88.9003    7.0299 C.ar    1  UNL1       -0.0000
     16 C          59.0033   87.4289    7.1712 C.ar    1  UNL1       -0.0003
     17 C          59.5147   86.6912    8.3730 C.ar    1  UNL1       -0.0029
     18 C          64.5865   86.4426   15.0018 C.3     1  UNL1        0.1153
     19 C          64.0991   87.8480   15.1945 C.2     1  UNL1        0.2273
     20 O          62.9717   88.1274   16.1437 O.2     1  UNL1       -0.2747
     21 N          64.7391   88.9742   14.4381 N.am    1  UNL1       -0.3002
     22 H          65.4791   88.7909   13.8151 H       1  UNL1        0.1498
     23 C          64.2518   90.3797   14.6309 C.3     1  UNL1        0.1161
     24 C          64.9710   91.5197   13.9729 C.ar    1  UNL1       -0.0044
     25 C          64.8976   91.6940   12.4848 C.ar    1  UNL1        0.0085
     26 C          65.6167   92.8340   11.8268 C.ar    1  UNL1        0.0574
     27 CL         65.5433   93.0082   10.3388 Cl      1  UNL1       -0.0823
     28 C          66.4093   93.7999   12.6568 C.ar    1  UNL1        0.0111
     29 C          66.4828   93.6257   14.1448 C.ar    1  UNL1       -0.0023
     30 C          65.7636   92.4856   14.8029 C.ar    1  UNL1       -0.0089
     31 C          65.8370   92.3114   16.2909 C.3     1  UNL1        0.0919
     32 N          64.7373   92.8403   17.1631 N.3     1  UNL1       -0.3175
     33 H          64.7221   93.8588   17.1111 H       1  UNL1        0.1192
     34 H          64.8998   92.5515   18.1278 H       1  UNL1        0.1192
@<TRIPOS>BOND
     1     1     2    1
     2     2     3    2
     3     3    18    1
     4    18    19    1
     5    19    20    2
     6    19    21   am
     7    21    23    1
     8    23    24    1
     9    24    25   ar
    10    25    26   ar
    11    26    27    1
    12    26    28   ar
    13    28    29   ar
    14    29    30   ar
    15    30    31    1
    16    31    32    1
    17     3     4    1
    18     4     5    2
    19     4     6   am
    20     6     9    1
    21     9    11    1
    22    11    12    1
    23    12    13   ar
    24    13    14   ar
    25    14    15   ar
    26    15    16   ar
    27    16    17   ar
    28     6     7    1
    29     7     8    1
    30     8     2    1
    31    30    24   ar
    32    17    12   ar
    33    21    22    1
    34    32    33    1
    35    32    34    1
    36     9    10    1
