@<TRIPOS>MOLECULE
*****
 33 36 0 0 0
SMALL
GASTEIGER

@<TRIPOS>ATOM
      1 C          63.8315   89.0293   13.5857 C.2     1  UNL1        0.2335
      2 O          64.5763   89.3911   14.8365 O.2     1  UNL1       -0.2742
      3 N          63.6812   87.5897   13.1921 N.am    1  UNL1       -0.2755
      4 C          62.9364   87.2279   11.9414 C.3     1  UNL1        0.1149
      5 C          62.7862   85.7883   11.5478 C.3     1  UNL1        0.1137
      6 N          63.3808   84.7104   12.4049 N.pl3   1  UNL1       -0.2897
      7 C          64.1257   85.0722   13.6557 C.3     1  UNL1        0.1137
      8 C          64.2759   86.5118   14.0493 C.3     1  UNL1        0.1149
      9 C          63.2306   83.2708   12.0113 C.ar    1  UNL1        0.1318
     10 C          63.6516   82.8192   10.6443 C.ar    1  UNL1        0.0343
     11 C          63.5013   81.3796   10.2507 C.ar    1  UNL1        0.0083
     12 C          62.9301   80.3916   11.2241 C.ar    1  UNL1        0.0906
     13 C          62.5091   80.8432   12.5912 C.ar    1  UNL1        0.1041
     14 N          62.6593   82.2828   12.9848 N.ar    1  UNL1       -0.2292
     15 C          62.7799   78.9520   10.8305 C.3     1  UNL1        0.4200
     16 F          62.6297   77.5123   10.4369 F       1  UNL1       -0.1658
     17 F          62.4427   78.5993   12.2489 F       1  UNL1       -0.1658
     18 F          63.1171   79.3046    9.4120 F       1  UNL1       -0.1658
     19 C          63.2369   90.1071   12.7286 C.3     1  UNL1        0.1226
     20 C          65.8193   93.4773   11.2375 C.ar    1  UNL1        0.0684
     21 C          64.9330   92.7328   10.2834 C.ar    1  UNL1        0.0100
     22 C          64.0722   91.6094   10.7805 C.ar    1  UNL1       -0.0028
     23 C          64.0977   91.2305   12.2316 C.ar    1  UNL1       -0.0097
     24 C          64.9839   91.9750   13.1856 C.ar    1  UNL1       -0.0028
     25 C          65.8447   93.0984   12.6886 C.ar    1  UNL1        0.0100
     26 N          67.5409   95.7240   10.2434 N.1     1  UNL1       -0.1908
     27 C          66.6801   94.6006   10.7404 C.1     1  UNL1        0.1004
     28 C          61.7815   90.0616   12.3686 C.ar    1  UNL1        0.0094
     29 C          61.3307   90.5081   11.0093 C.ar    1  UNL1       -0.0004
     30 C          59.8753   90.4626   10.6493 C.ar    1  UNL1        0.0204
     31 C          58.8706   89.9706   11.6484 C.ar    1  UNL1        0.0989
     32 N          59.3212   89.5241   13.0076 N.ar    1  UNL1       -0.2426
     33 C          60.7767   89.5696   13.3677 C.ar    1  UNL1        0.0954
@<TRIPOS>BOND
     1    26    27    3
     2    27    20    1
     3    20    21   ar
     4    21    22   ar
     5    22    23   ar
     6    23    19    1
     7    19     1    1
     8     1     2    2
     9     1     3   am
    10     3     4    1
    11     4     5    1
    12     5     6    1
    13     6     9    1
    14     9    10   ar
    15    10    11   ar
    16    11    12   ar
    17    12    15    1
    18    15    16    1
    19    15    17    1
    20    15    18    1
    21    12    13   ar
    22    13    14   ar
    23     6     7    1
    24     7     8    1
    25    19    28    1
    26    28    29   ar
    27    29    30   ar
    28    30    31   ar
    29    31    32   ar
    30    32    33   ar
    31    23    24   ar
    32    24    25   ar
    33    25    20   ar
    34     8     3    1
    35    33    28   ar
    36    14     9   ar
@<TRIPOS>MOLECULE
*****
 33 36 0 0 0
SMALL
GASTEIGER

@<TRIPOS>ATOM
      1 C          63.6768   88.6032   15.3223 C.2     1  UNL1        0.2335
      2 O          63.5862   88.7411   16.8132 O.2     1  UNL1       -0.2742
      3 N          63.5473   87.2516   14.6849 N.am    1  UNL1       -0.2755
      4 C          63.6380   87.1137   13.1940 C.3     1  UNL1        0.1149
      5 C          63.5084   85.7620   12.5566 C.3     1  UNL1        0.1137
      6 N          63.2882   84.5483   13.4100 N.pl3   1  UNL1       -0.2897
      7 C          63.1975   84.6862   14.9010 C.3     1  UNL1        0.1137
      8 C          63.3271   86.0379   15.5384 C.3     1  UNL1        0.1149
      9 C          63.1587   83.1967   12.7726 C.ar    1  UNL1        0.1318
     10 C          63.5207   83.0105   11.3290 C.ar    1  UNL1        0.0343
     11 C          63.3912   81.6588   10.6916 C.ar    1  UNL1        0.0083
     12 C          62.8996   80.4934   11.4978 C.ar    1  UNL1        0.0906
     13 C          62.5376   80.6796   12.9416 C.ar    1  UNL1        0.1041
     14 N          62.6671   82.0312   13.5790 N.ar    1  UNL1       -0.2292
     15 C          62.7701   79.1418   10.8604 C.3     1  UNL1        0.4200
     16 F          62.6405   77.7901   10.2230 F       1  UNL1       -0.1658
     17 F          62.5546   78.5255   12.2109 F       1  UNL1       -0.1658
     18 F          62.9855   79.7580    9.5099 F       1  UNL1       -0.1658
     19 C          63.8971   89.8169   14.4688 C.3     1  UNL1        0.1226
     20 C          67.1020   92.7821   15.5580 C.ar    1  UNL1        0.0684
     21 C          65.8197   92.7443   16.3353 C.ar    1  UNL1        0.0100
     22 C          64.7514   91.7559   15.9723 C.ar    1  UNL1       -0.0028
     23 C          64.9654   90.8053   14.8319 C.ar    1  UNL1       -0.0097
     24 C          66.2477   90.8431   14.0546 C.ar    1  UNL1       -0.0028
     25 C          67.3160   91.8314   14.4176 C.ar    1  UNL1        0.0100
     26 N          69.2386   94.7588   16.2841 N.1     1  UNL1       -0.1908
     27 C          68.1703   93.7704   15.9210 C.1     1  UNL1        0.1004
     28 C          63.0489   90.0422   13.2524 C.ar    1  UNL1        0.0094
     29 C          63.6434   90.6788   12.0310 C.ar    1  UNL1       -0.0004
     30 C          62.7953   90.9041   10.8145 C.ar    1  UNL1        0.0204
     31 C          61.3527   90.4929   10.8193 C.ar    1  UNL1        0.0989
     32 N          60.7583   89.8564   12.0405 N.ar    1  UNL1       -0.2426
     33 C          61.6064   89.6310   13.2571 C.ar    1  UNL1        0.0954
@<TRIPOS>BOND
     1    26    27    3
     2    27    20    1
     3    20    21   ar
     4    21    22   ar
     5    22    23   ar
     6    23    19    1
     7    19     1    1
     8     1     2    2
     9     1     3   am
    10     3     4    1
    11     4     5    1
    12     5     6    1
    13     6     9    1
    14     9    10   ar
    15    10    11   ar
    16    11    12   ar
    17    12    15    1
    18    15    16    1
    19    15    17    1
    20    15    18    1
    21    12    13   ar
    22    13    14   ar
    23     6     7    1
    24     7     8    1
    25    19    28    1
    26    28    29   ar
    27    29    30   ar
    28    30    31   ar
    29    31    32   ar
    30    32    33   ar
    31    23    24   ar
    32    24    25   ar
    33    25    20   ar
    34     8     3    1
    35    33    28   ar
    36    14     9   ar
@<TRIPOS>MOLECULE
*****
 33 36 0 0 0
SMALL
GASTEIGER

@<TRIPOS>ATOM
      1 C          64.1342   89.9200   13.3660 C.2     1  UNL1        0.2335
      2 O          64.8201   90.5551   14.5392 O.2     1  UNL1       -0.2742
      3 N          63.9044   88.4379   13.3439 N.am    1  UNL1       -0.2755
      4 C          63.2186   87.8027   12.1708 C.3     1  UNL1        0.1149
      5 C          62.9887   86.3206   12.1486 C.3     1  UNL1        0.1137
      6 N          63.4447   85.4736   13.2996 N.pl3   1  UNL1       -0.2897
      7 C          64.1306   86.1088   14.4727 C.3     1  UNL1        0.1137
      8 C          64.3604   87.5909   14.4949 C.3     1  UNL1        0.1149
      9 C          63.2149   83.9915   13.2774 C.ar    1  UNL1        0.1318
     10 C          62.4684   83.3315   14.3986 C.ar    1  UNL1        0.0343
     11 C          62.2385   81.8493   14.3765 C.ar    1  UNL1        0.0083
     12 C          62.7552   81.0272   13.2332 C.ar    1  UNL1        0.0906
     13 C          63.5017   81.6873   12.1119 C.ar    1  UNL1        0.1041
     14 N          63.7315   83.1694   12.1340 N.ar    1  UNL1       -0.2292
     15 C          62.5253   79.5451   13.2110 C.3     1  UNL1        0.4200
     16 F          62.2955   78.0630   13.1889 F       1  UNL1       -0.1658
     17 F          62.6646   79.5458   11.7175 F       1  UNL1       -0.1658
     18 F          62.3861   79.5444   14.7045 F       1  UNL1       -0.1658
     19 C          63.6783   90.7669   12.2151 C.3     1  UNL1        0.1226
     20 C          66.0754   94.3713   10.9853 C.ar    1  UNL1        0.0684
     21 C          65.1784   93.6929    9.9928 C.ar    1  UNL1        0.0100
     22 C          64.3794   92.4914   10.4027 C.ar    1  UNL1       -0.0028
     23 C          64.4773   91.9684   11.8052 C.ar    1  UNL1       -0.0097
     24 C          65.3743   92.6468   12.7977 C.ar    1  UNL1       -0.0028
     25 C          66.1733   93.8483   12.3877 C.ar    1  UNL1        0.0100
     26 N          67.6735   96.7742   10.1655 N.1     1  UNL1       -0.1908
     27 C          66.8745   95.5727   10.5754 C.1     1  UNL1        0.1004
     28 C          62.4232   90.4124   11.4740 C.ar    1  UNL1        0.0094
     29 C          61.0917   90.5298   12.1548 C.ar    1  UNL1       -0.0004
     30 C          59.8367   90.1753   11.4138 C.ar    1  UNL1        0.0204
     31 C          59.9130   89.7034    9.9920 C.ar    1  UNL1        0.0989
     32 N          61.2445   89.5860    9.3112 N.ar    1  UNL1       -0.2426
     33 C          62.4996   89.9405   10.0523 C.ar    1  UNL1        0.0954
@<TRIPOS>BOND
     1    26    27    3
     2    27    20    1
     3    20    21   ar
     4    21    22   ar
     5    22    23   ar
     6    23    19    1
     7    19     1    1
     8     1     2    2
     9     1     3   am
    10     3     4    1
    11     4     5    1
    12     5     6    1
    13     6     9    1
    14     9    10   ar
    15    10    11   ar
    16    11    12   ar
    17    12    15    1
    18    15    16    1
    19    15    17    1
    20    15    18    1
    21    12    13   ar
    22    13    14   ar
    23     6     7    1
    24     7     8    1
    25    19    28    1
    26    28    29   ar
    27    29    30   ar
    28    30    31   ar
    29    31    32   ar
    30    32    33   ar
    31    23    24   ar
    32    24    25   ar
    33    25    20   ar
    34     8     3    1
    35    33    28   ar
    36    14     9   ar
@<TRIPOS>MOLECULE
*****
 33 36 0 0 0
SMALL
GASTEIGER

@<TRIPOS>ATOM
      1 C          63.9033   88.8351   14.3358 C.2     1  UNL1        0.2335
      2 O          64.1722   89.0941   15.7886 O.2     1  UNL1       -0.2742
      3 N          63.7344   87.4283   13.8435 N.am    1  UNL1       -0.2755
      4 C          63.4655   87.1692   12.3907 C.3     1  UNL1        0.1149
      5 C          63.2965   85.7624   11.8984 C.3     1  UNL1        0.1137
      6 N          63.3964   84.6147   12.8589 N.pl3   1  UNL1       -0.2897
      7 C          63.6652   84.8737   14.3118 C.3     1  UNL1        0.1137
      8 C          63.8342   86.2805   14.8041 C.3     1  UNL1        0.1149
      9 C          63.2274   83.2079   12.3666 C.ar    1  UNL1        0.1318
     10 C          63.5611   82.8656   10.9449 C.ar    1  UNL1        0.0343
     11 C          63.3922   81.4588   10.4526 C.ar    1  UNL1        0.0083
     12 C          62.8894   80.3942   11.3821 C.ar    1  UNL1        0.0906
     13 C          62.5556   80.7365   12.8039 C.ar    1  UNL1        0.1041
     14 N          62.7246   82.1433   13.2962 N.ar    1  UNL1       -0.2292
     15 C          62.7204   78.9874   10.8898 C.3     1  UNL1        0.4200
     16 F          62.5514   77.5806   10.3975 F       1  UNL1       -0.1658
     17 F          62.5609   78.5119   12.3035 F       1  UNL1       -0.1658
     18 F          62.8800   79.4630    9.4761 F       1  UNL1       -0.1658
     19 C          63.8035   89.9829   13.3753 C.3     1  UNL1        0.1226
     20 C          60.9779   89.7530    9.8806 C.ar    1  UNL1        0.0684
     21 C          60.4489   89.6527   11.2806 C.ar    1  UNL1        0.0100
     22 C          61.3908   89.7293   12.4455 C.ar    1  UNL1       -0.0028
     23 C          62.8616   89.9063   12.2104 C.ar    1  UNL1       -0.0097
     24 C          63.3906   90.0066   10.8103 C.ar    1  UNL1       -0.0028
     25 C          62.4487   89.9300    9.6454 C.ar    1  UNL1        0.0100
     26 N          59.0941   89.5998    7.5507 N.1     1  UNL1       -0.1908
     27 C          60.0360   89.6764    8.7156 C.1     1  UNL1        0.1004
     28 C          64.6455   91.2072   13.5797 C.ar    1  UNL1        0.0094
     29 C          65.0794   92.0248   12.3992 C.ar    1  UNL1       -0.0004
     30 C          65.9215   93.2492   12.6036 C.ar    1  UNL1        0.0204
     31 C          66.3296   93.6561   13.9885 C.ar    1  UNL1        0.0989
     32 N          65.8957   92.8387   15.1689 N.ar    1  UNL1       -0.2426
     33 C          65.0536   91.6142   14.9646 C.ar    1  UNL1        0.0954
@<TRIPOS>BOND
     1    26    27    3
     2    27    20    1
     3    20    21   ar
     4    21    22   ar
     5    22    23   ar
     6    23    19    1
     7    19     1    1
     8     1     2    2
     9     1     3   am
    10     3     4    1
    11     4     5    1
    12     5     6    1
    13     6     9    1
    14     9    10   ar
    15    10    11   ar
    16    11    12   ar
    17    12    15    1
    18    15    16    1
    19    15    17    1
    20    15    18    1
    21    12    13   ar
    22    13    14   ar
    23     6     7    1
    24     7     8    1
    25    19    28    1
    26    28    29   ar
    27    29    30   ar
    28    30    31   ar
    29    31    32   ar
    30    32    33   ar
    31    23    24   ar
    32    24    25   ar
    33    25    20   ar
    34     8     3    1
    35    33    28   ar
    36    14     9   ar
@<TRIPOS>MOLECULE
*****
 33 36 0 0 0
SMALL
GASTEIGER

@<TRIPOS>ATOM
      1 C          63.9152   88.8465   14.3753 C.2     1  UNL1        0.2335
      2 O          64.1736   89.0995   15.8312 O.2     1  UNL1       -0.2742
      3 N          63.7407   87.4423   13.8776 N.am    1  UNL1       -0.2755
      4 C          63.4823   87.1893   12.4218 C.3     1  UNL1        0.1149
      5 C          63.3078   85.7851   11.9240 C.3     1  UNL1        0.1137
      6 N          63.3916   84.6339   12.8820 N.pl3   1  UNL1       -0.2897
      7 C          63.6500   84.8869   14.3378 C.3     1  UNL1        0.1137
      8 C          63.8245   86.2911   14.8356 C.3     1  UNL1        0.1149
      9 C          63.2171   83.2297   12.3842 C.ar    1  UNL1        0.1318
     10 C          63.6799   82.8595   11.0063 C.ar    1  UNL1        0.0343
     11 C          63.5053   81.4553   10.5085 C.ar    1  UNL1        0.0083
     12 C          62.8680   80.4213   11.3887 C.ar    1  UNL1        0.0906
     13 C          62.4052   80.7915   12.7667 C.ar    1  UNL1        0.1041
     14 N          62.5798   82.1957   13.2644 N.ar    1  UNL1       -0.2292
     15 C          62.6935   79.0171   10.8909 C.3     1  UNL1        0.4200
     16 F          62.5190   77.6129   10.3931 F       1  UNL1       -0.1658
     17 F          62.8710   79.4952    9.4802 F       1  UNL1       -0.1658
     18 F          62.5161   78.5391   12.3016 F       1  UNL1       -0.1658
     19 C          63.8314   89.9977   13.4174 C.3     1  UNL1        0.1226
     20 C          61.0356   89.7964    9.8970 C.ar    1  UNL1        0.0684
     21 C          62.5081   89.9768    9.6759 C.ar    1  UNL1        0.0100
     22 C          63.4401   90.0439   10.8494 C.ar    1  UNL1       -0.0028
     23 C          62.8995   89.9306   12.2439 C.ar    1  UNL1       -0.0097
     24 C          61.4269   89.7502   12.4650 C.ar    1  UNL1       -0.0028
     25 C          60.4949   89.6832   11.2916 C.ar    1  UNL1        0.0100
     26 N          59.1717   89.6623    7.5501 N.1     1  UNL1       -0.1908
     27 C          60.1036   89.7294    8.7236 C.1     1  UNL1        0.1004
     28 C          64.6795   91.2159   13.6329 C.ar    1  UNL1        0.0094
     29 C          65.3039   91.4676   14.9734 C.ar    1  UNL1       -0.0004
     30 C          66.1520   92.6858   15.1889 C.ar    1  UNL1        0.0204
     31 C          66.3758   93.6525   14.0640 C.ar    1  UNL1        0.0989
     32 N          65.7515   93.4008   12.7235 N.ar    1  UNL1       -0.2426
     33 C          64.9034   92.1825   12.5079 C.ar    1  UNL1        0.0954
@<TRIPOS>BOND
     1    26    27    3
     2    27    20    1
     3    20    21   ar
     4    21    22   ar
     5    22    23   ar
     6    23    19    1
     7    19     1    1
     8     1     2    2
     9     1     3   am
    10     3     4    1
    11     4     5    1
    12     5     6    1
    13     6     9    1
    14     9    10   ar
    15    10    11   ar
    16    11    12   ar
    17    12    15    1
    18    15    16    1
    19    15    17    1
    20    15    18    1
    21    12    13   ar
    22    13    14   ar
    23     6     7    1
    24     7     8    1
    25    19    28    1
    26    28    29   ar
    27    29    30   ar
    28    30    31   ar
    29    31    32   ar
    30    32    33   ar
    31    23    24   ar
    32    24    25   ar
    33    25    20   ar
    34     8     3    1
    35    33    28   ar
    36    14     9   ar
@<TRIPOS>MOLECULE
*****
 33 36 0 0 0
SMALL
GASTEIGER

@<TRIPOS>ATOM
      1 C          64.3607   90.2294   13.7352 C.2     1  UNL1        0.2335
      2 O          64.9383   90.8751   14.9598 O.2     1  UNL1       -0.2742
      3 N          64.0527   88.7614   13.7358 N.am    1  UNL1       -0.2755
      4 C          63.4752   88.1157   12.5113 C.3     1  UNL1        0.1149
      5 C          63.1671   86.6477   12.5119 C.3     1  UNL1        0.1137
      6 N          63.4366   85.8253   13.7371 N.pl3   1  UNL1       -0.2897
      7 C          64.0141   86.4710   14.9617 C.3     1  UNL1        0.1137
      8 C          64.3222   87.9390   14.9611 C.3     1  UNL1        0.1149
      9 C          63.1285   84.3573   13.7377 C.ar    1  UNL1        0.1318
     10 C          62.7900   83.6614   12.4527 C.ar    1  UNL1        0.0343
     11 C          62.4820   82.1934   12.4534 C.ar    1  UNL1        0.0083
     12 C          62.5124   81.4212   13.7389 C.ar    1  UNL1        0.0906
     13 C          62.8508   82.1171   15.0240 C.ar    1  UNL1        0.1041
     14 N          63.1589   83.5851   15.0234 N.ar    1  UNL1       -0.2292
     15 C          62.2043   79.9532   13.7396 C.3     1  UNL1        0.4200
     16 F          61.8963   78.4852   13.7402 F       1  UNL1       -0.1658
     17 F          60.7363   80.2613   13.7396 F       1  UNL1       -0.1658
     18 F          63.6723   79.6452   13.7395 F       1  UNL1       -0.1658
     19 C          64.0913   91.0518   12.5100 C.3     1  UNL1        0.1226
     20 C          60.9503   89.7409    9.5662 C.ar    1  UNL1        0.0684
     21 C          60.5437   90.3168   10.8901 C.ar    1  UNL1        0.0100
     22 C          61.5906   90.7538   11.8714 C.ar    1  UNL1       -0.0028
     23 C          63.0443   90.6148   11.5287 C.ar    1  UNL1       -0.0097
     24 C          63.4510   90.0389   10.2048 C.ar    1  UNL1       -0.0028
     25 C          62.4040   89.6019    9.2235 C.ar    1  UNL1        0.0100
     26 N          58.8564   88.8670    7.6036 N.1     1  UNL1       -0.1908
     27 C          59.9034   89.3039    8.5849 C.1     1  UNL1        0.1004
     28 C          64.8688   92.3111   12.2661 C.ar    1  UNL1        0.0094
     29 C          64.8475   92.9553   10.9116 C.ar    1  UNL1       -0.0004
     30 C          65.6250   94.2146   10.6677 C.ar    1  UNL1        0.0204
     31 C          66.4239   94.8298   11.7783 C.ar    1  UNL1        0.0989
     32 N          66.4453   94.1856   13.1327 N.ar    1  UNL1       -0.2426
     33 C          65.6677   92.9262   13.3767 C.ar    1  UNL1        0.0954
@<TRIPOS>BOND
     1    26    27    3
     2    27    20    1
     3    20    21   ar
     4    21    22   ar
     5    22    23   ar
     6    23    19    1
     7    19     1    1
     8     1     2    2
     9     1     3   am
    10     3     4    1
    11     4     5    1
    12     5     6    1
    13     6     9    1
    14     9    10   ar
    15    10    11   ar
    16    11    12   ar
    17    12    15    1
    18    15    16    1
    19    15    17    1
    20    15    18    1
    21    12    13   ar
    22    13    14   ar
    23     6     7    1
    24     7     8    1
    25    19    28    1
    26    28    29   ar
    27    29    30   ar
    28    30    31   ar
    29    31    32   ar
    30    32    33   ar
    31    23    24   ar
    32    24    25   ar
    33    25    20   ar
    34     8     3    1
    35    33    28   ar
    36    14     9   ar
@<TRIPOS>MOLECULE
*****
 33 36 0 0 0
SMALL
GASTEIGER

@<TRIPOS>ATOM
      1 C          62.3214   89.8588   12.0644 C.2     1  UNL1        0.2335
      2 O          61.2053   90.6106   11.4017 O.2     1  UNL1       -0.2742
      3 N          62.3998   88.3663   11.9369 N.am    1  UNL1       -0.2755
      4 C          63.5159   87.6145   12.5995 C.3     1  UNL1        0.1149
      5 C          63.5942   86.1220   12.4720 C.3     1  UNL1        0.1137
      6 N          62.5564   85.3813   11.6819 N.pl3   1  UNL1       -0.2897
      7 C          61.4403   86.1331   11.0192 C.3     1  UNL1        0.1137
      8 C          61.3619   87.6256   11.1467 C.3     1  UNL1        0.1149
      9 C          62.6348   83.8888   11.5544 C.ar    1  UNL1        0.1318
     10 C          63.2029   83.2710   10.3112 C.ar    1  UNL1        0.0343
     11 C          63.2813   81.7785   10.1837 C.ar    1  UNL1        0.0083
     12 C          62.7915   80.9037   11.2994 C.ar    1  UNL1        0.0906
     13 C          62.2233   81.5215   12.5426 C.ar    1  UNL1        0.1041
     14 N          62.1449   83.0140   12.6701 N.ar    1  UNL1       -0.2292
     15 C          62.8698   79.4112   11.1719 C.3     1  UNL1        0.4200
     16 F          62.9481   77.9187   11.0444 F       1  UNL1       -0.1658
     17 F          63.0826   79.5487    9.6934 F       1  UNL1       -0.1658
     18 F          62.6570   79.2737   12.6503 F       1  UNL1       -0.1658
     19 C          63.3592   90.5996   12.8545 C.3     1  UNL1        0.1226
     20 C          66.3366   93.2337   10.7459 C.ar    1  UNL1        0.0684
     21 C          65.1190   92.7462   10.0181 C.ar    1  UNL1        0.0100
     22 C          64.1265   91.8681   10.7210 C.ar    1  UNL1       -0.0028
     23 C          64.3517   91.4776   12.1516 C.ar    1  UNL1       -0.0097
     24 C          65.5692   91.9652   12.8794 C.ar    1  UNL1       -0.0028
     25 C          66.5617   92.8433   12.1765 C.ar    1  UNL1        0.0100
     26 N          68.3215   94.9899    9.3401 N.1     1  UNL1       -0.1908
     27 C          67.3290   94.1118   10.0430 C.1     1  UNL1        0.1004
     28 C          63.4045   90.4622   14.3475 C.ar    1  UNL1        0.0094
     29 C          63.1049   89.1395   14.9884 C.ar    1  UNL1       -0.0004
     30 C          63.1502   89.0022   16.4814 C.ar    1  UNL1        0.0204
     31 C          63.4951   90.1875   17.3335 C.ar    1  UNL1        0.0989
     32 N          63.7946   91.5102   16.6926 N.ar    1  UNL1       -0.2426
     33 C          63.7494   91.6476   15.1996 C.ar    1  UNL1        0.0954
@<TRIPOS>BOND
     1    26    27    3
     2    27    20    1
     3    20    21   ar
     4    21    22   ar
     5    22    23   ar
     6    23    19    1
     7    19     1    1
     8     1     2    2
     9     1     3   am
    10     3     4    1
    11     4     5    1
    12     5     6    1
    13     6     9    1
    14     9    10   ar
    15    10    11   ar
    16    11    12   ar
    17    12    15    1
    18    15    16    1
    19    15    17    1
    20    15    18    1
    21    12    13   ar
    22    13    14   ar
    23     6     7    1
    24     7     8    1
    25    19    28    1
    26    28    29   ar
    27    29    30   ar
    28    30    31   ar
    29    31    32   ar
    30    32    33   ar
    31    23    24   ar
    32    24    25   ar
    33    25    20   ar
    34     8     3    1
    35    33    28   ar
    36    14     9   ar
@<TRIPOS>MOLECULE
*****
 33 36 0 0 0
SMALL
GASTEIGER

@<TRIPOS>ATOM
      1 C          60.5478   88.5988   11.5833 C.2     1  UNL1        0.2335
      2 O          59.1969   88.6779   12.2306 O.2     1  UNL1       -0.2742
      3 N          61.7202   89.2966   12.2068 N.am    1  UNL1       -0.2755
      4 C          63.0710   89.2175   11.5595 C.3     1  UNL1        0.1149
      5 C          64.2434   89.9152   12.1830 C.3     1  UNL1        0.1137
      6 N          64.0649   90.6921   13.4537 N.pl3   1  UNL1       -0.2897
      7 C          62.7140   90.7711   14.1010 C.3     1  UNL1        0.1137
      8 C          61.5416   90.0734   13.4775 C.3     1  UNL1        0.1149
      9 C          65.2373   91.3898   14.0771 C.ar    1  UNL1        0.1318
     10 C          66.5128   91.5497   13.3041 C.ar    1  UNL1        0.0343
     11 C          67.6851   92.2475   13.9276 C.ar    1  UNL1        0.0083
     12 C          67.5820   92.7853   15.3240 C.ar    1  UNL1        0.0906
     13 C          66.3065   92.6254   16.0971 C.ar    1  UNL1        0.1041
     14 N          65.1341   91.9277   15.4736 N.ar    1  UNL1       -0.2292
     15 C          68.7544   93.4831   15.9475 C.3     1  UNL1        0.4200
     16 F          69.9268   94.1808   16.5709 F       1  UNL1       -0.1658
     17 F          68.2532   94.7953   15.4214 F       1  UNL1       -0.1658
     18 F          69.2556   92.1708   16.4735 F       1  UNL1       -0.1658
     19 C          60.7263   87.8220   10.3126 C.3     1  UNL1        0.1226
     20 C          63.1658   84.0406   10.3109 C.ar    1  UNL1        0.0684
     21 C          62.4603   84.4774   11.5604 C.ar    1  UNL1        0.0100
     22 C          61.6471   85.7379   11.5610 C.ar    1  UNL1       -0.0028
     23 C          61.5394   86.5615   10.3120 C.ar    1  UNL1       -0.0097
     24 C          62.2449   86.1247    9.0625 C.ar    1  UNL1       -0.0028
     25 C          63.0581   84.8643    9.0619 C.ar    1  UNL1        0.0100
     26 N          64.7921   81.5197   10.3097 N.1     1  UNL1       -0.1908
     27 C          63.9789   82.7802   10.3103 C.1     1  UNL1        0.1004
     28 C          60.0915   88.3056    9.0426 C.ar    1  UNL1        0.0094
     29 C          60.4447   89.6567    8.4947 C.ar    1  UNL1       -0.0004
     30 C          59.8100   90.1403    7.2246 C.ar    1  UNL1        0.0204
     31 C          58.8221   89.2730    6.5023 C.ar    1  UNL1        0.0989
     32 N          58.4689   87.9220    7.0501 N.ar    1  UNL1       -0.2426
     33 C          59.1036   87.4383    8.3202 C.ar    1  UNL1        0.0954
@<TRIPOS>BOND
     1    26    27    3
     2    27    20    1
     3    20    21   ar
     4    21    22   ar
     5    22    23   ar
     6    23    19    1
     7    19     1    1
     8     1     2    2
     9     1     3   am
    10     3     4    1
    11     4     5    1
    12     5     6    1
    13     6     9    1
    14     9    10   ar
    15    10    11   ar
    16    11    12   ar
    17    12    15    1
    18    15    16    1
    19    15    17    1
    20    15    18    1
    21    12    13   ar
    22    13    14   ar
    23     6     7    1
    24     7     8    1
    25    19    28    1
    26    28    29   ar
    27    29    30   ar
    28    30    31   ar
    29    31    32   ar
    30    32    33   ar
    31    23    24   ar
    32    24    25   ar
    33    25    20   ar
    34     8     3    1
    35    33    28   ar
    36    14     9   ar
@<TRIPOS>MOLECULE
*****
 33 36 0 0 0
SMALL
GASTEIGER

@<TRIPOS>ATOM
      1 C          60.8112   88.3576   11.6140 C.2     1  UNL1        0.2335
      2 O          59.5200   88.1819   12.3570 O.2     1  UNL1       -0.2742
      3 N          61.9454   89.1072   12.2479 N.am    1  UNL1       -0.2755
      4 C          63.2365   89.2828   11.5049 C.3     1  UNL1        0.1149
      5 C          64.3706   90.0324   12.1387 C.3     1  UNL1        0.1137
      6 N          64.2136   90.6064   13.5157 N.pl3   1  UNL1       -0.2897
      7 C          62.9225   90.4307   14.2587 C.3     1  UNL1        0.1137
      8 C          61.7883   89.6811   13.6248 C.3     1  UNL1        0.1149
      9 C          65.3478   91.3560   14.1495 C.ar    1  UNL1        0.1318
     10 C          66.6263   91.5622   13.3928 C.ar    1  UNL1        0.0343
     11 C          67.7605   92.3118   14.0267 C.ar    1  UNL1        0.0083
     12 C          67.6161   92.8551   15.4173 C.ar    1  UNL1        0.0906
     13 C          66.3375   92.6489   16.1742 C.ar    1  UNL1        0.1041
     14 N          65.2033   91.8993   15.5403 N.ar    1  UNL1       -0.2292
     15 C          68.7502   93.6047   16.0512 C.3     1  UNL1        0.4200
     16 F          69.8844   94.3543   16.6851 F       1  UNL1       -0.1658
     17 F          68.2242   94.8866   15.4767 F       1  UNL1       -0.1658
     18 F          69.2763   92.3229   16.6258 F       1  UNL1       -0.1658
     19 C          60.9682   87.7836   10.2371 C.3     1  UNL1        0.1226
     20 C          59.0608   89.8332    6.7141 C.ar    1  UNL1        0.0684
     21 C          58.7276   88.4032    7.0206 C.ar    1  UNL1        0.0100
     22 C          59.3634   87.7200    8.1949 C.ar    1  UNL1       -0.0028
     23 C          60.3324   88.4668    9.0627 C.ar    1  UNL1       -0.0097
     24 C          60.6656   89.8969    8.7563 C.ar    1  UNL1       -0.0028
     25 C          60.0298   90.5800    7.5820 C.ar    1  UNL1        0.0100
     26 N          57.7892   91.1996    4.3655 N.1     1  UNL1       -0.1908
     27 C          58.4250   90.5164    5.5398 C.1     1  UNL1        0.1004
     28 C          61.7610   86.5265   10.0345 C.ar    1  UNL1        0.0094
     29 C          62.3706   86.2318    8.6960 C.ar    1  UNL1       -0.0004
     30 C          63.1634   84.9746    8.4934 C.ar    1  UNL1        0.0204
     31 C          63.3466   84.0122    9.6292 C.ar    1  UNL1        0.0989
     32 N          62.7370   84.3069   10.9677 N.ar    1  UNL1       -0.2426
     33 C          61.9442   85.5641   11.1703 C.ar    1  UNL1        0.0954
@<TRIPOS>BOND
     1    26    27    3
     2    27    20    1
     3    20    21   ar
     4    21    22   ar
     5    22    23   ar
     6    23    19    1
     7    19     1    1
     8     1     2    2
     9     1     3   am
    10     3     4    1
    11     4     5    1
    12     5     6    1
    13     6     9    1
    14     9    10   ar
    15    10    11   ar
    16    11    12   ar
    17    12    15    1
    18    15    16    1
    19    15    17    1
    20    15    18    1
    21    12    13   ar
    22    13    14   ar
    23     6     7    1
    24     7     8    1
    25    19    28    1
    26    28    29   ar
    27    29    30   ar
    28    30    31   ar
    29    31    32   ar
    30    32    33   ar
    31    23    24   ar
    32    24    25   ar
    33    25    20   ar
    34     8     3    1
    35    33    28   ar
    36    14     9   ar
