@<TRIPOS>MOLECULE
*****
 35 38 0 0 0
SMALL
GASTEIGER

@<TRIPOS>ATOM
      1 C          62.2552   85.8306   11.9120 C.ar    1  UNL1        0.1762
      2 C          63.2588   86.9453   11.9224 C.ar    1  UNL1        0.0582
      3 C          62.5089   88.2444   11.9123 C.ar    1  UNL1        0.1043
      4 N          61.0417   87.9325   11.8956 N.ar    1  UNL1       -0.0812
      5 O          60.8850   86.4408   11.8955 O.2     1  UNL1       -0.3537
      6 C          63.1190   89.6147   11.9178 C.3     1  UNL1        0.0878
      7 C          63.8313   90.1136   13.1400 C.3     1  UNL1        0.0773
      8 N          64.4414   91.4839   13.1456 N.3     1  UNL1       -0.2970
      9 C          64.3392   92.3552   11.9289 C.3     1  UNL1        0.0714
     10 C          63.6270   91.8563   10.7066 C.3     1  UNL1        0.0486
     11 C          63.0170   90.4861   10.7012 C.3     1  UNL1        0.1149
     12 O          62.6599   90.9357    9.3154 O.3     1  UNL1       -0.3822
     13 H          65.4356   91.3628   13.3384 H       1  UNL1        0.1233
     14 H          62.9990   91.8327    9.1691 H       1  UNL1        0.2107
     15 C          62.2828   89.2719   10.2143 C.ar    1  UNL1        0.0045
     16 C          60.7928   89.1858   10.3650 C.ar    1  UNL1        0.0004
     17 C          60.0587   87.9717    9.8781 C.ar    1  UNL1        0.0317
     18 C          60.8145   86.8437    9.2407 C.ar    1  UNL1        0.1674
     19 F          60.0804   85.6296    8.7538 F       1  UNL1       -0.2018
     20 C          62.3044   86.9298    9.0900 C.ar    1  UNL1        0.1671
     21 F          63.0602   85.8017    8.4525 F       1  UNL1       -0.2018
     22 C          63.0385   88.1439    9.5769 C.ar    1  UNL1        0.0299
     23 C          62.6137   83.6112   13.2141 C.ar    1  UNL1       -0.0174
     24 C          62.9255   82.1440   13.2193 C.ar    1  UNL1       -0.0041
     25 C          63.1905   81.4289   11.9276 C.ar    1  UNL1       -0.0003
     26 C          63.1437   82.1811   10.6307 C.ar    1  UNL1        0.0001
     27 C          62.8320   83.6483   10.6255 C.ar    1  UNL1        0.0028
     28 C          62.5670   84.3633   11.9172 C.ar    1  UNL1        0.0333
     29 C          62.3488   84.3262   14.5058 C.3     1  UNL1        0.0477
     30 C          63.4946   84.7734   15.3643 C.3     1  UNL1        0.0941
     31 C          63.0749   88.2881   17.1591 C.3     1  UNL1        0.0946
     32 C          62.9050   86.8338   16.8330 C.2     1  UNL1        0.2230
     33 O          61.9755   85.9857   17.6496 O.2     1  UNL1       -0.2751
     34 N          63.6645   86.2277   15.6903 N.am    1  UNL1       -0.3040
     35 H          64.2746   86.7843   15.1544 H       1  UNL1        0.1494
@<TRIPOS>BOND
     1    31    32    1
     2    32    33    2
     3    32    34   am
     4    34    30    1
     5    30    29    1
     6    29    23    1
     7    23    24   ar
     8    24    25   ar
     9    25    26   ar
    10    26    27   ar
    11    27    28   ar
    12    28     1    1
    13     1     2   ar
    14     2     3   ar
    15     6     3    1
    16     6     7    1
    17     7     8    1
    18     8     9    1
    19     9    10    1
    20    10    11    1
    21    11    12    1
    22    11    15    1
    23    15    16   ar
    24    16    17   ar
    25    17    18   ar
    26    18    19    1
    27    18    20   ar
    28    20    21    1
    29    20    22   ar
    30     3     4   ar
    31     4     5   ar
    32    28    23   ar
    33     5     1   ar
    34    11     6    1
    35    22    15   ar
    36    34    35    1
    37     8    13    1
    38    12    14    1
@<TRIPOS>MOLECULE
*****
 35 38 0 0 0
SMALL
GASTEIGER

@<TRIPOS>ATOM
      1 C          62.9306   89.4126   11.4339 C.ar    1  UNL1        0.1762
      2 C          62.9671   88.7237   10.1020 C.ar    1  UNL1        0.0582
      3 C          61.9794   87.5953   10.1366 C.ar    1  UNL1        0.1043
      4 N          61.3324   87.5868   11.4900 N.ar    1  UNL1       -0.0812
      5 O          61.9203   88.7100   12.2917 O.2     1  UNL1       -0.3537
      6 C          61.6895   86.6426    9.0149 C.3     1  UNL1        0.0878
      7 C          62.6708   85.5591    8.6785 C.3     1  UNL1        0.0773
      8 N          62.3810   84.6064    7.5568 N.3     1  UNL1       -0.2970
      9 C          61.1098   84.7372    6.7714 C.3     1  UNL1        0.0714
     10 C          60.1284   85.8207    7.1077 C.3     1  UNL1        0.0486
     11 C          60.4183   86.7733    8.2294 C.3     1  UNL1        0.1149
     12 O          59.0872   87.2982    7.7793 O.3     1  UNL1       -0.3822
     13 H          62.3837   83.6689    7.9585 H       1  UNL1        0.1233
     14 H          58.7639   86.7651    7.0362 H       1  UNL1        0.2107
     15 C          60.2458   87.9083    9.1948 C.ar    1  UNL1        0.0045
     16 C          60.7728   89.2704    8.8528 C.ar    1  UNL1        0.0004
     17 C          60.6004   90.4055    9.8183 C.ar    1  UNL1        0.0317
     18 C          59.9010   90.1784   11.1256 C.ar    1  UNL1        0.1674
     19 F          59.7285   91.3134   12.0910 F       1  UNL1       -0.2018
     20 C          59.3740   88.8163   11.4676 C.ar    1  UNL1        0.1671
     21 F          58.6746   88.5892   12.7751 F       1  UNL1       -0.2018
     22 C          59.5465   87.6813   10.5022 C.ar    1  UNL1        0.0299
     23 C          64.1394   90.7905   13.2752 C.ar    1  UNL1       -0.0174
     24 C          64.9677   91.9742   13.6785 C.ar    1  UNL1       -0.0041
     25 C          65.4155   92.9638   12.6439 C.ar    1  UNL1       -0.0003
     26 C          65.0350   92.7696   11.2061 C.ar    1  UNL1        0.0001
     27 C          64.2067   91.5859   10.8028 C.ar    1  UNL1        0.0028
     28 C          63.7589   90.5964   11.8373 C.ar    1  UNL1        0.0333
     29 C          63.6916   89.8010   14.3097 C.3     1  UNL1        0.0477
     30 C          64.4065   88.4901   14.4527 C.3     1  UNL1        0.0941
     31 C          63.4820   84.7403   13.5390 C.3     1  UNL1        0.0946
     32 C          63.9469   85.9366   14.3153 C.2     1  UNL1        0.2230
     33 O          64.4169   85.7759   15.7307 O.2     1  UNL1       -0.2751
     34 N          63.9416   87.2937   13.6763 N.am    1  UNL1       -0.3040
     35 H          63.6331   87.3993   12.7474 H       1  UNL1        0.1494
@<TRIPOS>BOND
     1    31    32    1
     2    32    33    2
     3    32    34   am
     4    34    30    1
     5    30    29    1
     6    29    23    1
     7    23    24   ar
     8    24    25   ar
     9    25    26   ar
    10    26    27   ar
    11    27    28   ar
    12    28     1    1
    13     1     2   ar
    14     2     3   ar
    15     6     3    1
    16     6     7    1
    17     7     8    1
    18     8     9    1
    19     9    10    1
    20    10    11    1
    21    11    12    1
    22    11    15    1
    23    15    16   ar
    24    16    17   ar
    25    17    18   ar
    26    18    19    1
    27    18    20   ar
    28    20    21    1
    29    20    22   ar
    30     3     4   ar
    31     4     5   ar
    32    28    23   ar
    33     5     1   ar
    34    11     6    1
    35    22    15   ar
    36    34    35    1
    37     8    13    1
    38    12    14    1
@<TRIPOS>MOLECULE
*****
 35 38 0 0 0
SMALL
GASTEIGER

@<TRIPOS>ATOM
      1 C          62.7592   89.5477   11.7519 C.ar    1  UNL1        0.1762
      2 C          62.6212   88.1355   11.2653 C.ar    1  UNL1        0.0582
      3 C          62.1883   88.1800    9.8299 C.ar    1  UNL1        0.1043
      4 N          62.0587   89.6197    9.4292 N.ar    1  UNL1       -0.0812
      5 O          62.4115   90.4650   10.6171 O.2     1  UNL1       -0.3537
      6 C          61.9304   86.9932    8.9495 C.3     1  UNL1        0.0878
      7 C          63.0756   86.1497    8.4731 C.3     1  UNL1        0.0773
      8 N          62.8176   84.9629    7.5928 N.3     1  UNL1       -0.2970
      9 C          61.4144   84.6196    7.1890 C.3     1  UNL1        0.0714
     10 C          60.2691   85.4631    7.6655 C.3     1  UNL1        0.0486
     11 C          60.5272   86.6498    8.5457 C.3     1  UNL1        0.1149
     12 O          59.0334   86.7281    8.4342 O.3     1  UNL1       -0.3822
     13 H          63.1916   84.1484    8.0796 H       1  UNL1        0.1233
     14 H          58.7122   86.0018    7.8771 H       1  UNL1        0.2107
     15 C          60.2663   87.8638    9.3873 C.ar    1  UNL1        0.0045
     16 C          60.2594   89.2254    8.7578 C.ar    1  UNL1        0.0004
     17 C          59.9986   90.4394    9.5994 C.ar    1  UNL1        0.0317
     18 C          59.7446   90.2918   11.0703 C.ar    1  UNL1        0.1674
     19 F          59.4838   91.5058   11.9119 F       1  UNL1       -0.2018
     20 C          59.7515   88.9303   11.6998 C.ar    1  UNL1        0.1671
     21 F          59.4976   88.7828   13.1708 F       1  UNL1       -0.2018
     22 C          60.0124   87.7163   10.8582 C.ar    1  UNL1        0.0299
     23 C          64.1798   91.0653   13.3103 C.ar    1  UNL1       -0.0174
     24 C          64.5928   91.4862   14.6895 C.ar    1  UNL1       -0.0041
     25 C          63.9982   90.8106   15.8895 C.ar    1  UNL1       -0.0003
     26 C          62.9906   89.7140   15.7103 C.ar    1  UNL1        0.0001
     27 C          62.5776   89.2930   14.3311 C.ar    1  UNL1        0.0028
     28 C          63.1722   89.9687   13.1311 C.ar    1  UNL1        0.0333
     29 C          64.7744   91.7409   12.1103 C.3     1  UNL1        0.0477
     30 C          65.9250   92.6887   12.2766 C.3     1  UNL1        0.0941
     31 C          66.4222   96.2906   10.6862 C.3     1  UNL1        0.0946
     32 C          66.6066   94.8297   10.9720 C.2     1  UNL1        0.2230
     33 O          67.6569   94.0488   10.2392 O.2     1  UNL1       -0.2751
     34 N          65.7406   94.1497   11.9908 N.am    1  UNL1       -0.3040
     35 H          65.0513   94.6622   12.4718 H       1  UNL1        0.1494
@<TRIPOS>BOND
     1    31    32    1
     2    32    33    2
     3    32    34   am
     4    34    30    1
     5    30    29    1
     6    29    23    1
     7    23    24   ar
     8    24    25   ar
     9    25    26   ar
    10    26    27   ar
    11    27    28   ar
    12    28     1    1
    13     1     2   ar
    14     2     3   ar
    15     6     3    1
    16     6     7    1
    17     7     8    1
    18     8     9    1
    19     9    10    1
    20    10    11    1
    21    11    12    1
    22    11    15    1
    23    15    16   ar
    24    16    17   ar
    25    17    18   ar
    26    18    19    1
    27    18    20   ar
    28    20    21    1
    29    20    22   ar
    30     3     4   ar
    31     4     5   ar
    32    28    23   ar
    33     5     1   ar
    34    11     6    1
    35    22    15   ar
    36    34    35    1
    37     8    13    1
    38    12    14    1
@<TRIPOS>MOLECULE
*****
 35 38 0 0 0
SMALL
GASTEIGER

@<TRIPOS>ATOM
      1 C          59.5674   93.0574   -0.7754 C.ar    1  UNL1        0.1762
      2 C          59.3402   92.9057   -2.2503 C.ar    1  UNL1        0.0582
      3 C          57.8614   92.8144   -2.4844 C.ar    1  UNL1        0.1043
      4 N          57.1746   92.9097   -1.1542 N.ar    1  UNL1       -0.0812
      5 O          58.2291   93.0599   -0.0980 O.2     1  UNL1       -0.3537
      6 C          57.1876   92.6557   -3.8152 C.3     1  UNL1        0.0878
      7 C          57.0140   91.2895   -4.4097 C.3     1  UNL1        0.0773
      8 N          56.3401   91.1308   -5.7405 N.3     1  UNL1       -0.2970
      9 C          55.8400   92.3382   -6.4765 C.3     1  UNL1        0.0714
     10 C          56.0135   93.7044   -5.8820 C.3     1  UNL1        0.0486
     11 C          56.6873   93.8631   -4.5513 C.3     1  UNL1        0.1149
     12 O          56.3846   95.2988   -4.8628 O.3     1  UNL1       -0.3822
     13 H          55.5353   90.5220   -5.5922 H       1  UNL1        0.1233
     14 H          55.9348   95.3557   -5.7203 H       1  UNL1        0.2107
     15 C          57.2560   94.5205   -3.3288 C.ar    1  UNL1        0.0045
     16 C          56.3988   94.7121   -2.1128 C.ar    1  UNL1        0.0004
     17 C          56.9675   95.3695   -0.8903 C.ar    1  UNL1        0.0317
     18 C          58.3933   95.8352   -0.8838 C.ar    1  UNL1        0.1674
     19 F          58.9619   96.4926    0.3387 F       1  UNL1       -0.2018
     20 C          59.2505   95.6436   -2.0996 C.ar    1  UNL1        0.1671
     21 F          60.6764   96.1093   -2.0931 F       1  UNL1       -0.2018
     22 C          58.6818   94.9862   -3.3222 C.ar    1  UNL1        0.0299
     23 C          60.9958   93.0611    1.3948 C.ar    1  UNL1       -0.0174
     24 C          62.3275   93.1880    2.0732 C.ar    1  UNL1       -0.0041
     25 C          63.5628   93.4382    1.2598 C.ar    1  UNL1       -0.0003
     26 C          63.4662   93.5615   -0.2320 C.ar    1  UNL1        0.0001
     27 C          62.1345   93.4345   -0.9103 C.ar    1  UNL1        0.0028
     28 C          60.8992   93.1843   -0.0969 C.ar    1  UNL1        0.0333
     29 C          59.7605   92.8109    2.2082 C.3     1  UNL1        0.0477
     30 C          59.7930   92.9933    3.6967 C.3     1  UNL1        0.0941
     31 C          59.1043   89.9241    6.1166 C.3     1  UNL1        0.0946
     32 C          58.8675   91.1041    5.2213 C.2     1  UNL1        0.2230
     33 O          57.4684   91.5749    4.9554 O.2     1  UNL1       -0.2751
     34 N          60.0299   91.8133    4.5920 N.am    1  UNL1       -0.3040
     35 H          60.9482   91.5043    4.7665 H       1  UNL1        0.1494
@<TRIPOS>BOND
     1    31    32    1
     2    32    33    2
     3    32    34   am
     4    34    30    1
     5    30    29    1
     6    29    23    1
     7    23    24   ar
     8    24    25   ar
     9    25    26   ar
    10    26    27   ar
    11    27    28   ar
    12    28     1    1
    13     1     2   ar
    14     2     3   ar
    15     6     3    1
    16     6     7    1
    17     7     8    1
    18     8     9    1
    19     9    10    1
    20    10    11    1
    21    11    12    1
    22    11    15    1
    23    15    16   ar
    24    16    17   ar
    25    17    18   ar
    26    18    19    1
    27    18    20   ar
    28    20    21    1
    29    20    22   ar
    30     3     4   ar
    31     4     5   ar
    32    28    23   ar
    33     5     1   ar
    34    11     6    1
    35    22    15   ar
    36    34    35    1
    37     8    13    1
    38    12    14    1
@<TRIPOS>MOLECULE
*****
 35 38 0 0 0
SMALL
GASTEIGER

@<TRIPOS>ATOM
      1 C          63.0323   89.0931   11.5107 C.ar    1  UNL1        0.1762
      2 C          63.0174   88.5432   10.1153 C.ar    1  UNL1        0.0582
      3 C          62.1390   87.3274   10.1055 C.ar    1  UNL1        0.1043
      4 N          61.6109   87.1258   11.4950 N.ar    1  UNL1       -0.0812
      5 O          62.1631   88.2171   12.3634 O.2     1  UNL1       -0.3537
      6 C          61.8409   86.4646    8.9152 C.3     1  UNL1        0.0878
      7 C          62.8413   85.4443    8.4591 C.3     1  UNL1        0.0773
      8 N          62.5432   84.5815    7.2688 N.3     1  UNL1       -0.2970
      9 C          61.2447   84.7390    6.5347 C.3     1  UNL1        0.0714
     10 C          60.2442   85.7594    6.9908 C.3     1  UNL1        0.0486
     11 C          60.5424   86.6221    8.1810 C.3     1  UNL1        0.1149
     12 O          59.1834   87.1420    7.8163 O.3     1  UNL1       -0.3822
     13 H          62.5851   83.6138    7.5886 H       1  UNL1        0.1233
     14 H          58.8520   86.6641    7.0400 H       1  UNL1        0.2107
     15 C          60.3685   87.6655    9.2446 C.ar    1  UNL1        0.0045
     16 C          59.6485   87.3273   10.5164 C.ar    1  UNL1        0.0004
     17 C          59.4746   88.3707   11.5800 C.ar    1  UNL1        0.0317
     18 C          60.0207   89.7521   11.3718 C.ar    1  UNL1        0.1674
     19 F          59.8468   90.7955   12.4354 F       1  UNL1       -0.2018
     20 C          60.7406   90.0903   10.1001 C.ar    1  UNL1        0.1671
     21 F          61.2867   91.4718    9.8920 F       1  UNL1       -0.2018
     22 C          60.9145   89.0469    9.0365 C.ar    1  UNL1        0.0299
     23 C          64.0676   90.5021   13.4324 C.ar    1  UNL1       -0.0174
     24 C          64.8197   91.7150   13.8941 C.ar    1  UNL1       -0.0041
     25 C          65.2886   92.7318   12.8960 C.ar    1  UNL1       -0.0003
     26 C          65.0054   92.5357   11.4361 C.ar    1  UNL1        0.0001
     27 C          64.2534   91.3228   10.9744 C.ar    1  UNL1        0.0028
     28 C          63.7844   90.3060   11.9725 C.ar    1  UNL1        0.0333
     29 C          63.5987   89.4854   14.4306 C.3     1  UNL1        0.0477
     30 C          64.4440   88.2830   14.7300 C.3     1  UNL1        0.0941
     31 C          62.6425   86.2365   17.6138 C.3     1  UNL1        0.0946
     32 C          63.2178   87.3830   16.8363 C.2     1  UNL1        0.2230
     33 O          63.1423   88.7760   17.3875 O.2     1  UNL1       -0.2751
     34 N          63.8687   87.1365   15.5075 N.am    1  UNL1       -0.3040
     35 H          63.9183   86.2222   15.1457 H       1  UNL1        0.1494
@<TRIPOS>BOND
     1    31    32    1
     2    32    33    2
     3    32    34   am
     4    34    30    1
     5    30    29    1
     6    29    23    1
     7    23    24   ar
     8    24    25   ar
     9    25    26   ar
    10    26    27   ar
    11    27    28   ar
    12    28     1    1
    13     1     2   ar
    14     2     3   ar
    15     6     3    1
    16     6     7    1
    17     7     8    1
    18     8     9    1
    19     9    10    1
    20    10    11    1
    21    11    12    1
    22    11    15    1
    23    15    16   ar
    24    16    17   ar
    25    17    18   ar
    26    18    19    1
    27    18    20   ar
    28    20    21    1
    29    20    22   ar
    30     3     4   ar
    31     4     5   ar
    32    28    23   ar
    33     5     1   ar
    34    11     6    1
    35    22    15   ar
    36    34    35    1
    37     8    13    1
    38    12    14    1
@<TRIPOS>MOLECULE
*****
 35 38 0 0 0
SMALL
GASTEIGER

@<TRIPOS>ATOM
      1 C          64.1366   86.4402   13.7614 C.ar    1  UNL1        0.1762
      2 C          63.3557   85.4109   12.9993 C.ar    1  UNL1        0.0582
      3 C          63.9961   84.0751   13.2348 C.ar    1  UNL1        0.1043
      4 N          65.1728   84.2788   14.1426 N.ar    1  UNL1       -0.0812
      5 O          65.2596   85.7405   14.4680 O.2     1  UNL1       -0.3537
      6 C          63.5399   82.7655   12.6631 C.3     1  UNL1        0.0878
      7 C          63.8498   82.4213   11.2364 C.3     1  UNL1        0.0773
      8 N          63.3937   81.1117   10.6647 N.3     1  UNL1       -0.2970
      9 C          62.6275   80.1464   11.5196 C.3     1  UNL1        0.0714
     10 C          62.3175   80.4906   12.9464 C.3     1  UNL1        0.0486
     11 C          62.7737   81.8001   13.5180 C.3     1  UNL1        0.1149
     12 O          62.0826   81.2195   14.7161 O.3     1  UNL1       -0.3822
     13 H          64.2298   80.6227   10.3452 H       1  UNL1        0.1233
     14 H          61.7255   80.3460   14.4916 H       1  UNL1        0.2107
     15 C          62.9898   82.9080   14.5059 C.ar    1  UNL1        0.0045
     16 C          64.3060   83.0351   15.2143 C.ar    1  UNL1        0.0004
     17 C          64.5221   84.1430   16.2021 C.ar    1  UNL1        0.0317
     18 C          63.4222   85.1238   16.4815 C.ar    1  UNL1        0.1674
     19 F          63.6384   86.2318   17.4694 F       1  UNL1       -0.2018
     20 C          62.1062   84.9969   15.7732 C.ar    1  UNL1        0.1671
     21 F          61.0062   85.9778   16.0526 F       1  UNL1       -0.2018
     22 C          61.8900   83.8889   14.7854 C.ar    1  UNL1        0.0299
     23 C          63.1487   88.5750   12.6582 C.ar    1  UNL1       -0.0174
     24 C          62.8577   90.0457   12.7055 C.ar    1  UNL1       -0.0041
     25 C          63.2636   90.8524   13.9031 C.ar    1  UNL1       -0.0003
     26 C          63.9604   90.1884   15.0536 C.ar    1  UNL1        0.0001
     27 C          64.2514   88.7177   15.0063 C.ar    1  UNL1        0.0028
     28 C          63.8455   87.9110   13.8086 C.ar    1  UNL1        0.0333
     29 C          62.7428   87.7682   11.4605 C.3     1  UNL1        0.0477
     30 C          61.4255   88.0287   10.7922 C.3     1  UNL1        0.0941
     31 C          59.5106   86.4289    7.7060 C.3     1  UNL1        0.0946
     32 C          60.0937   87.4496    8.6379 C.2     1  UNL1        0.2230
     33 O          59.9279   88.9118    8.3473 O.2     1  UNL1       -0.2751
     34 N          60.8425   87.0080    9.8603 N.am    1  UNL1       -0.3040
     35 H          60.9512   86.0483   10.0511 H       1  UNL1        0.1494
@<TRIPOS>BOND
     1    31    32    1
     2    32    33    2
     3    32    34   am
     4    34    30    1
     5    30    29    1
     6    29    23    1
     7    23    24   ar
     8    24    25   ar
     9    25    26   ar
    10    26    27   ar
    11    27    28   ar
    12    28     1    1
    13     1     2   ar
    14     2     3   ar
    15     6     3    1
    16     6     7    1
    17     7     8    1
    18     8     9    1
    19     9    10    1
    20    10    11    1
    21    11    12    1
    22    11    15    1
    23    15    16   ar
    24    16    17   ar
    25    17    18   ar
    26    18    19    1
    27    18    20   ar
    28    20    21    1
    29    20    22   ar
    30     3     4   ar
    31     4     5   ar
    32    28    23   ar
    33     5     1   ar
    34    11     6    1
    35    22    15   ar
    36    34    35    1
    37     8    13    1
    38    12    14    1
@<TRIPOS>MOLECULE
*****
 35 38 0 0 0
SMALL
GASTEIGER

@<TRIPOS>ATOM
      1 C          62.8433   88.8382   11.7255 C.ar    1  UNL1        0.1762
      2 C          62.5420   87.4978   11.1235 C.ar    1  UNL1        0.0582
      3 C          62.2498   87.6993    9.6661 C.ar    1  UNL1        0.1043
      4 N          62.3704   89.1643    9.3674 N.ar    1  UNL1       -0.0812
      5 O          62.7372   89.8682   10.6402 O.2     1  UNL1       -0.3537
      6 C          61.8986   86.6245    8.6804 C.3     1  UNL1        0.0878
      7 C          62.9657   85.7101    8.1559 C.3     1  UNL1        0.0773
      8 N          62.6145   84.6353    7.1702 N.3     1  UNL1       -0.2970
      9 C          61.1962   84.4749    6.7092 C.3     1  UNL1        0.0714
     10 C          60.1290   85.3894    7.2337 C.3     1  UNL1        0.0486
     11 C          60.4803   86.4640    8.2193 C.3     1  UNL1        0.1149
     12 O          59.0061   86.7062    8.0843 O.3     1  UNL1       -0.3822
     13 H          62.8892   83.7480    7.5918 H       1  UNL1        0.1233
     14 H          58.6294   86.0669    7.4595 H       1  UNL1        0.2107
     15 C          60.3195   87.6229    9.1580 C.ar    1  UNL1        0.0045
     16 C          60.4618   89.0265    8.6482 C.ar    1  UNL1        0.0004
     17 C          60.3010   90.1853    9.5869 C.ar    1  UNL1        0.0317
     18 C          59.9979   89.9407   11.0354 C.ar    1  UNL1        0.1674
     19 F          59.8371   91.0996   11.9742 F       1  UNL1       -0.2018
     20 C          59.8555   88.5372   11.5453 C.ar    1  UNL1        0.1671
     21 F          59.5524   88.2926   12.9939 F       1  UNL1       -0.2018
     22 C          60.0163   87.3784   10.6066 C.ar    1  UNL1        0.0299
     23 C          63.6482   87.9776   14.0410 C.ar    1  UNL1       -0.0174
     24 C          63.9947   88.2417   15.4763 C.ar    1  UNL1       -0.0041
     25 C          63.8827   89.6307   16.0315 C.ar    1  UNL1       -0.0003
     26 C          63.4242   90.7555   15.1514 C.ar    1  UNL1        0.0001
     27 C          63.0777   90.4913   13.7161 C.ar    1  UNL1        0.0028
     28 C          63.1897   89.1023   13.1609 C.ar    1  UNL1        0.0333
     29 C          63.7602   86.5886   13.4858 C.3     1  UNL1        0.0477
     30 C          64.0818   85.4407   14.3962 C.3     1  UNL1        0.0941
     31 C          62.0977   82.0049   14.3016 C.3     1  UNL1        0.0946
     32 C          63.1348   83.0510   14.0184 C.2     1  UNL1        0.2230
     33 O          64.2619   82.7535   13.0745 O.2     1  UNL1       -0.2751
     34 N          63.0447   84.3946   14.6793 N.am    1  UNL1       -0.3040
     35 H          62.3049   84.5899   15.2988 H       1  UNL1        0.1494
@<TRIPOS>BOND
     1    31    32    1
     2    32    33    2
     3    32    34   am
     4    34    30    1
     5    30    29    1
     6    29    23    1
     7    23    24   ar
     8    24    25   ar
     9    25    26   ar
    10    26    27   ar
    11    27    28   ar
    12    28     1    1
    13     1     2   ar
    14     2     3   ar
    15     6     3    1
    16     6     7    1
    17     7     8    1
    18     8     9    1
    19     9    10    1
    20    10    11    1
    21    11    12    1
    22    11    15    1
    23    15    16   ar
    24    16    17   ar
    25    17    18   ar
    26    18    19    1
    27    18    20   ar
    28    20    21    1
    29    20    22   ar
    30     3     4   ar
    31     4     5   ar
    32    28    23   ar
    33     5     1   ar
    34    11     6    1
    35    22    15   ar
    36    34    35    1
    37     8    13    1
    38    12    14    1
@<TRIPOS>MOLECULE
*****
 35 38 0 0 0
SMALL
GASTEIGER

@<TRIPOS>ATOM
      1 C          61.8231   95.6477    0.4013 C.ar    1  UNL1        0.1762
      2 C          60.7904   95.3492   -0.6449 C.ar    1  UNL1        0.0582
      3 C          59.5092   95.0028    0.0540 C.ar    1  UNL1        0.1043
      4 N          59.7500   95.0872    1.5322 N.ar    1  UNL1       -0.0812
      5 O          61.1801   95.4858    1.7468 O.2     1  UNL1       -0.3537
      6 C          58.2144   94.6364   -0.6088 C.3     1  UNL1        0.0878
      7 C          57.2738   95.7126   -1.0637 C.3     1  UNL1        0.0773
      8 N          55.9790   95.3462   -1.7265 N.3     1  UNL1       -0.2970
      9 C          55.6250   93.9035   -1.9344 C.3     1  UNL1        0.0714
     10 C          56.5656   92.8272   -1.4795 C.3     1  UNL1        0.0486
     11 C          57.8603   93.1937   -0.8168 C.3     1  UNL1        0.1149
     12 O          57.9690   91.6979   -0.7914 O.3     1  UNL1       -0.3822
     13 H          55.9859   95.7834   -2.6480 H       1  UNL1        0.1233
     14 H          57.1792   91.3093   -1.1990 H       1  UNL1        0.2107
     15 C          59.1928   93.0406   -0.1451 C.ar    1  UNL1        0.0045
     16 C          60.4444   92.9715   -0.9690 C.ar    1  UNL1        0.0004
     17 C          61.7769   92.8184   -0.2974 C.ar    1  UNL1        0.0317
     18 C          61.8578   92.7345    1.1980 C.ar    1  UNL1        0.1674
     19 F          63.1903   92.5814    1.8697 F       1  UNL1       -0.2018
     20 C          60.6063   92.8035    2.0219 C.ar    1  UNL1        0.1671
     21 F          60.6871   92.7196    3.5174 F       1  UNL1       -0.2018
     22 C          59.2737   92.9566    1.3503 C.ar    1  UNL1        0.0299
     23 C          63.7977   96.0060   -1.2487 C.ar    1  UNL1       -0.0174
     24 C          65.2231   96.3976   -1.5033 C.ar    1  UNL1       -0.0041
     25 C          66.0993   96.8226   -0.3624 C.ar    1  UNL1       -0.0003
     26 C          65.5501   96.8560    1.0330 C.ar    1  UNL1        0.0001
     27 C          64.1247   96.4644    1.2876 C.ar    1  UNL1        0.0028
     28 C          63.2485   96.0393    0.1467 C.ar    1  UNL1        0.0333
     29 C          62.9215   95.5810   -2.3896 C.3     1  UNL1        0.0477
     30 C          63.3359   94.4381   -3.2682 C.3     1  UNL1        0.0941
     31 C          65.5907   93.8933   -6.4883 C.3     1  UNL1        0.0946
     32 C          64.8745   93.6259   -5.1978 C.2     1  UNL1        0.2230
     33 O          64.9806   92.2790   -4.5462 O.2     1  UNL1       -0.2751
     34 N          64.0521   94.7055   -4.5587 N.am    1  UNL1       -0.3040
     35 H          63.9825   95.5895   -4.9863 H       1  UNL1        0.1494
@<TRIPOS>BOND
     1    31    32    1
     2    32    33    2
     3    32    34   am
     4    34    30    1
     5    30    29    1
     6    29    23    1
     7    23    24   ar
     8    24    25   ar
     9    25    26   ar
    10    26    27   ar
    11    27    28   ar
    12    28     1    1
    13     1     2   ar
    14     2     3   ar
    15     6     3    1
    16     6     7    1
    17     7     8    1
    18     8     9    1
    19     9    10    1
    20    10    11    1
    21    11    12    1
    22    11    15    1
    23    15    16   ar
    24    16    17   ar
    25    17    18   ar
    26    18    19    1
    27    18    20   ar
    28    20    21    1
    29    20    22   ar
    30     3     4   ar
    31     4     5   ar
    32    28    23   ar
    33     5     1   ar
    34    11     6    1
    35    22    15   ar
    36    34    35    1
    37     8    13    1
    38    12    14    1
@<TRIPOS>MOLECULE
*****
 35 38 0 0 0
SMALL
GASTEIGER

@<TRIPOS>ATOM
      1 C          61.5676   94.4377   -1.1540 C.ar    1  UNL1        0.1762
      2 C          60.6761   93.3253   -1.6206 C.ar    1  UNL1        0.0582
      3 C          59.4990   93.9372   -2.3205 C.ar    1  UNL1        0.1043
      4 N          59.6629   95.4279   -2.2864 N.ar    1  UNL1       -0.0812
      5 O          60.9414   95.7372   -1.5655 O.2     1  UNL1       -0.3537
      6 C          58.3581   93.1897   -2.9449 C.3     1  UNL1        0.0878
      7 C          58.4743   92.6825   -4.3517 C.3     1  UNL1        0.0773
      8 N          57.3334   91.9351   -4.9761 N.3     1  UNL1       -0.2970
      9 C          56.0765   91.6948   -4.1936 C.3     1  UNL1        0.0714
     10 C          55.9604   92.2021   -2.7867 C.3     1  UNL1        0.0486
     11 C          57.1012   92.9495   -2.1624 C.3     1  UNL1        0.1149
     12 O          56.1224   92.9715   -1.0260 O.3     1  UNL1       -0.3822
     13 H          57.6931   91.0190   -5.2440 H       1  UNL1        0.1233
     14 H          55.3103   92.5111   -1.2897 H       1  UNL1        0.2107
     15 C          57.9020   93.7046   -1.1434 C.ar    1  UNL1        0.0045
     16 C          57.8875   95.2045   -1.1394 C.ar    1  UNL1        0.0004
     17 C          58.6884   95.9596   -0.1203 C.ar    1  UNL1        0.0317
     18 C          59.5037   95.2148    0.8947 C.ar    1  UNL1        0.1674
     19 F          60.3046   95.9699    1.9138 F       1  UNL1       -0.2018
     20 C          59.5183   93.7149    0.8908 C.ar    1  UNL1        0.1671
     21 F          60.3337   92.9701    1.9059 F       1  UNL1       -0.2018
     22 C          58.7174   92.9598   -0.1283 C.ar    1  UNL1        0.0299
     23 C          64.0172   95.1815   -0.7111 C.ar    1  UNL1       -0.0174
     24 C          65.3082   95.0224    0.0359 C.ar    1  UNL1       -0.0041
     25 C          65.4406   93.9604    1.0870 C.ar    1  UNL1       -0.0003
     26 C          64.2820   93.0576    1.3911 C.ar    1  UNL1        0.0001
     27 C          62.9910   93.2167    0.6441 C.ar    1  UNL1        0.0028
     28 C          62.8586   94.2786   -0.4070 C.ar    1  UNL1        0.0333
     29 C          63.8849   96.2434   -1.7622 C.3     1  UNL1        0.0477
     30 C          64.3651   95.9804   -3.1586 C.3     1  UNL1        0.0941
     31 C          64.0582   92.3439   -4.7180 C.3     1  UNL1        0.0946
     32 C          63.7059   93.7396   -4.2964 C.2     1  UNL1        0.2230
     33 O          62.3421   94.2903   -4.5908 O.2     1  UNL1       -0.2751
     34 N          64.7174   94.5847   -3.5803 N.am    1  UNL1       -0.3040
     35 H          65.6126   94.2232   -3.3870 H       1  UNL1        0.1494
@<TRIPOS>BOND
     1    31    32    1
     2    32    33    2
     3    32    34   am
     4    34    30    1
     5    30    29    1
     6    29    23    1
     7    23    24   ar
     8    24    25   ar
     9    25    26   ar
    10    26    27   ar
    11    27    28   ar
    12    28     1    1
    13     1     2   ar
    14     2     3   ar
    15     6     3    1
    16     6     7    1
    17     7     8    1
    18     8     9    1
    19     9    10    1
    20    10    11    1
    21    11    12    1
    22    11    15    1
    23    15    16   ar
    24    16    17   ar
    25    17    18   ar
    26    18    19    1
    27    18    20   ar
    28    20    21    1
    29    20    22   ar
    30     3     4   ar
    31     4     5   ar
    32    28    23   ar
    33     5     1   ar
    34    11     6    1
    35    22    15   ar
    36    34    35    1
    37     8    13    1
    38    12    14    1
