@<TRIPOS>MOLECULE
*****
 26 28 0 0 0
SMALL
GASTEIGER

@<TRIPOS>ATOM
      1 C          62.1930   85.5734    9.8450 C.ar    1  UNL1       -0.0002
      2 C          62.9905   84.5591    9.0801 C.ar    1  UNL1       -0.0000
      3 C          63.8931   83.6092    9.8101 C.ar    1  UNL1       -0.0002
      4 C          63.9983   83.6736   11.3049 C.ar    1  UNL1       -0.0017
      5 C          63.2008   84.6879   12.0699 C.ar    1  UNL1        0.0070
      6 C          62.2981   85.6378   11.3399 C.ar    1  UNL1       -0.0017
      7 C          59.4851   88.4233    7.6551 C.ar    1  UNL1        0.1387
      8 C          59.4678   86.9622    7.3162 C.ar    1  UNL1        0.0369
      9 C          60.3705   86.0123    8.0462 C.ar    1  UNL1        0.0031
     10 C          61.2904   86.5234    9.1150 C.ar    1  UNL1        0.0002
     11 C          61.3076   87.9845    9.4539 C.ar    1  UNL1        0.0031
     12 C          60.4050   88.9344    8.7240 C.ar    1  UNL1        0.0369
     13 C          59.1213   90.2033    5.7980 C.3     1  UNL1        0.2525
     14 O          58.5824   89.3732    6.9251 O.3     1  UNL1       -0.4714
     15 C          63.3059   84.7522   13.5648 C.3     1  UNL1        0.1410
     16 O          63.4553   86.2429   13.4901 O.3     1  UNL1       -0.3771
     17 H          63.4235   86.5249   12.5625 H       1  UNL1        0.2112
     18 C          63.1565   83.2616   13.6396 C.ar    1  UNL1        0.0825
     19 C          64.2215   82.2882   14.0500 C.ar    1  UNL1        0.1157
     20 N          63.6390   80.9076   13.9812 N.ar    1  UNL1       -0.2228
     21 C          62.2141   81.0277   13.5282 C.ar    1  UNL1        0.1749
     22 N          61.9158   82.4826   13.3171 N.ar    1  UNL1       -0.3361
     23 H          61.0567   82.8599   13.0192 H       1  UNL1        0.1673
     24 C          63.4110   84.8167   15.0597 C.3     1  UNL1        0.0340
     25 C          62.2538   84.3875   15.9122 C.3     1  UNL1        0.0031
     26 C          64.6733   85.3104   15.7023 C.3     1  UNL1        0.0031
@<TRIPOS>BOND
     1    13    14    1
     2    14     7    1
     3     7     8   ar
     4     8     9   ar
     5     9    10   ar
     6    10     1    1
     7     1     2   ar
     8     2     3   ar
     9     3     4   ar
    10     4     5   ar
    11     5    15    1
    12    15    16    1
    13    15    18    1
    14    18    19   ar
    15    19    20   ar
    16    20    21   ar
    17    21    22   ar
    18    15    24    1
    19    24    25    1
    20    24    26    1
    21     5     6   ar
    22    10    11   ar
    23    11    12   ar
    24    12     7   ar
    25     6     1   ar
    26    22    18   ar
    27    16    17    1
    28    22    23    1
@<TRIPOS>MOLECULE
*****
 26 28 0 0 0
SMALL
GASTEIGER

@<TRIPOS>ATOM
      1 C          62.6902   88.5157   12.0726 C.ar    1  UNL1       -0.0002
      2 C          61.3372   88.8411   11.5127 C.ar    1  UNL1       -0.0000
      3 C          60.4944   87.7567   10.9098 C.ar    1  UNL1       -0.0002
      4 C          61.0046   86.3468   10.8667 C.ar    1  UNL1       -0.0017
      5 C          62.3576   86.0214   11.4265 C.ar    1  UNL1        0.0070
      6 C          63.2004   87.1059   12.0295 C.ar    1  UNL1       -0.0017
      7 C          65.2187   91.7692   13.8813 C.ar    1  UNL1        0.1387
      8 C          64.6071   91.9611   12.5252 C.ar    1  UNL1        0.0369
      9 C          63.7642   90.8766   11.9223 C.ar    1  UNL1        0.0031
     10 C          63.5331   89.6002   12.6755 C.ar    1  UNL1        0.0002
     11 C          64.1447   89.4083   14.0315 C.ar    1  UNL1        0.0031
     12 C          64.9876   90.4928   14.6345 C.ar    1  UNL1        0.0369
     13 C          66.6765   92.6602   15.8386 C.3     1  UNL1        0.2525
     14 O          66.0616   92.8537   14.4842 O.3     1  UNL1       -0.4714
     15 C          62.8678   84.6114   11.3835 C.3     1  UNL1        0.1410
     16 O          62.6827   84.5900    9.8951 O.3     1  UNL1       -0.3771
     17 H          62.3317   85.4449    9.6006 H       1  UNL1        0.2112
     18 C          63.0529   84.6329   12.8718 C.ar    1  UNL1        0.0825
     19 C          64.3641   84.5744   13.5982 C.ar    1  UNL1        0.1157
     20 N          64.0809   84.6220   15.0705 N.ar    1  UNL1       -0.2228
     21 C          62.5948   84.7098   15.2540 C.ar    1  UNL1        0.1749
     22 N          61.9594   84.7166   13.8952 N.ar    1  UNL1       -0.3361
     23 H          60.9942   84.7671   13.7080 H       1  UNL1        0.1673
     24 C          63.3780   83.2016   11.3403 C.3     1  UNL1        0.0340
     25 C          62.6301   82.1113   12.0489 C.3     1  UNL1        0.0031
     26 C          64.6361   82.8819   10.5887 C.3     1  UNL1        0.0031
@<TRIPOS>BOND
     1    13    14    1
     2    14     7    1
     3     7     8   ar
     4     8     9   ar
     5     9    10   ar
     6    10     1    1
     7     1     2   ar
     8     2     3   ar
     9     3     4   ar
    10     4     5   ar
    11     5    15    1
    12    15    16    1
    13    15    18    1
    14    18    19   ar
    15    19    20   ar
    16    20    21   ar
    17    21    22   ar
    18    15    24    1
    19    24    25    1
    20    24    26    1
    21     5     6   ar
    22    10    11   ar
    23    11    12   ar
    24    12     7   ar
    25     6     1   ar
    26    22    18   ar
    27    16    17    1
    28    22    23    1
@<TRIPOS>MOLECULE
*****
 26 28 0 0 0
SMALL
GASTEIGER

@<TRIPOS>ATOM
      1 C          62.6899   88.5120   12.0641 C.ar    1  UNL1       -0.0002
      2 C          61.3405   88.8393   11.4969 C.ar    1  UNL1       -0.0000
      3 C          60.5002   87.7564   10.8878 C.ar    1  UNL1       -0.0002
      4 C          61.0093   86.3461   10.8458 C.ar    1  UNL1       -0.0017
      5 C          62.3588   86.0188   11.4130 C.ar    1  UNL1        0.0070
      6 C          63.1991   87.1017   12.0222 C.ar    1  UNL1       -0.0017
      7 C          65.2108   91.7609   13.8916 C.ar    1  UNL1        0.1387
      8 C          64.9855   90.4783   14.6359 C.ar    1  UNL1        0.0369
      9 C          64.1452   89.3953   14.0267 C.ar    1  UNL1        0.0031
     10 C          63.5302   89.5950   12.6733 C.ar    1  UNL1        0.0002
     11 C          63.7556   90.8776   11.9290 C.ar    1  UNL1        0.0031
     12 C          64.5959   91.9606   12.5381 C.ar    1  UNL1        0.0369
     13 C          66.6049   92.6747   15.8844 C.3     1  UNL1        0.2525
     14 O          66.0512   92.8439   14.5007 O.3     1  UNL1       -0.4714
     15 C          62.8680   84.6084   11.3711 C.3     1  UNL1        0.1410
     16 O          62.6833   84.5860    9.8827 O.3     1  UNL1       -0.3771
     17 H          62.3330   85.4410    9.5875 H       1  UNL1        0.2112
     18 C          63.0527   84.6308   12.8595 C.ar    1  UNL1        0.0825
     19 C          64.3625   84.5534   13.5867 C.ar    1  UNL1        0.1157
     20 N          64.0794   84.6093   15.0587 N.ar    1  UNL1       -0.2228
     21 C          62.5948   84.7212   15.2413 C.ar    1  UNL1        0.1749
     22 N          61.9602   84.7345   13.8821 N.ar    1  UNL1       -0.3361
     23 H          60.9960   84.7999   13.6942 H       1  UNL1        0.1673
     24 C          63.3772   83.1981   11.3292 C.3     1  UNL1        0.0340
     25 C          64.6398   82.8784   10.5850 C.3     1  UNL1        0.0031
     26 C          62.6239   82.1075   12.0313 C.3     1  UNL1        0.0031
@<TRIPOS>BOND
     1    13    14    1
     2    14     7    1
     3     7     8   ar
     4     8     9   ar
     5     9    10   ar
     6    10     1    1
     7     1     2   ar
     8     2     3   ar
     9     3     4   ar
    10     4     5   ar
    11     5    15    1
    12    15    16    1
    13    15    18    1
    14    18    19   ar
    15    19    20   ar
    16    20    21   ar
    17    21    22   ar
    18    15    24    1
    19    24    25    1
    20    24    26    1
    21     5     6   ar
    22    10    11   ar
    23    11    12   ar
    24    12     7   ar
    25     6     1   ar
    26    22    18   ar
    27    16    17    1
    28    22    23    1
@<TRIPOS>MOLECULE
*****
 26 28 0 0 0
SMALL
GASTEIGER

@<TRIPOS>ATOM
      1 C          63.1309   89.9610   11.8900 C.ar    1  UNL1       -0.0002
      2 C          63.2750   89.6309   13.3461 C.ar    1  UNL1       -0.0000
      3 C          64.2026   90.4341   14.2090 C.ar    1  UNL1       -0.0002
      4 C          64.9861   91.5673   13.6158 C.ar    1  UNL1       -0.0017
      5 C          64.8420   91.8973   12.1597 C.ar    1  UNL1        0.0070
      6 C          63.9144   91.0942   11.2968 C.ar    1  UNL1       -0.0017
      7 C          60.3481   87.5516    9.3014 C.ar    1  UNL1        0.1387
      8 C          60.3500   89.0488    9.2097 C.ar    1  UNL1        0.0369
      9 C          61.2776   89.8519   10.0726 C.ar    1  UNL1        0.0031
     10 C          62.2033   89.1579   11.0271 C.ar    1  UNL1        0.0002
     11 C          62.2015   87.6607   11.1188 C.ar    1  UNL1        0.0031
     12 C          61.2739   86.8576   10.2559 C.ar    1  UNL1        0.0369
     13 C          59.9775   85.8070    7.4122 C.3     1  UNL1        0.2525
     14 O          59.4205   86.7485    8.4385 O.3     1  UNL1       -0.4714
     15 C          65.6255   93.0306   11.5664 C.3     1  UNL1        0.1410
     16 O          64.6863   93.0679   10.3975 O.3     1  UNL1       -0.3771
     17 H          64.0062   92.3851   10.5072 H       1  UNL1        0.2112
     18 C          66.5648   92.9932   12.7353 C.ar    1  UNL1        0.0825
     19 C          67.7494   92.0854   12.8859 C.ar    1  UNL1        0.1157
     20 N          68.4011   92.3882   14.2025 N.ar    1  UNL1       -0.2228
     21 C          67.6193   93.4831   14.8657 C.ar    1  UNL1        0.1749
     22 N          66.4843   93.8571   13.9589 N.ar    1  UNL1       -0.3361
     23 H          65.8058   94.5482   14.1359 H       1  UNL1        0.1673
     24 C          66.4090   94.1638   10.9731 C.3     1  UNL1        0.0340
     25 C          66.1707   95.5679   11.4441 C.3     1  UNL1        0.0031
     26 C          67.4307   93.8929    9.9088 C.3     1  UNL1        0.0031
@<TRIPOS>BOND
     1    13    14    1
     2    14     7    1
     3     7     8   ar
     4     8     9   ar
     5     9    10   ar
     6    10     1    1
     7     1     2   ar
     8     2     3   ar
     9     3     4   ar
    10     4     5   ar
    11     5    15    1
    12    15    16    1
    13    15    18    1
    14    18    19   ar
    15    19    20   ar
    16    20    21   ar
    17    21    22   ar
    18    15    24    1
    19    24    25    1
    20    24    26    1
    21     5     6   ar
    22    10    11   ar
    23    11    12   ar
    24    12     7   ar
    25     6     1   ar
    26    22    18   ar
    27    16    17    1
    28    22    23    1
@<TRIPOS>MOLECULE
*****
 26 28 0 0 0
SMALL
GASTEIGER

@<TRIPOS>ATOM
      1 C          63.9796   88.8160   15.4301 C.ar    1  UNL1       -0.0002
      2 C          63.4012   89.5886   16.5784 C.ar    1  UNL1       -0.0000
      3 C          63.5533   91.0799   16.6314 C.ar    1  UNL1       -0.0002
      4 C          64.2837   91.7987   15.5361 C.ar    1  UNL1       -0.0017
      5 C          64.8621   91.0262   14.3878 C.ar    1  UNL1        0.0070
      6 C          64.7101   89.5348   14.3349 C.ar    1  UNL1       -0.0017
      7 C          63.5234   84.3420   15.2712 C.ar    1  UNL1        0.1387
      8 C          64.0947   85.0799   14.0969 C.ar    1  UNL1        0.0369
      9 C          64.2467   86.5712   14.1498 C.ar    1  UNL1        0.0031
     10 C          63.8275   87.3247   15.3772 C.ar    1  UNL1        0.0002
     11 C          63.2563   86.5869   16.5516 C.ar    1  UNL1        0.0031
     12 C          63.1042   85.0956   16.4986 C.ar    1  UNL1        0.0369
     13 C          62.2696   82.2375   14.4058 C.3     1  UNL1        0.2525
     14 O          63.3713   82.8507   15.2183 O.3     1  UNL1       -0.4714
     15 C          65.5926   91.7449   13.2924 C.3     1  UNL1        0.1410
     16 O          64.5588   91.2909   12.3051 O.3     1  UNL1       -0.3771
     17 H          63.8906   90.7548   12.7601 H       1  UNL1        0.2112
     18 C          66.6265   92.1990   14.2798 C.ar    1  UNL1        0.0825
     19 C          66.8905   93.6174   14.6906 C.ar    1  UNL1        0.1157
     20 N          68.0050   93.6095   15.6944 N.ar    1  UNL1       -0.2228
     21 C          68.4299   92.1863   15.9041 C.ar    1  UNL1        0.1749
     22 N          67.5779   91.3145   15.0298 N.ar    1  UNL1       -0.3361
     23 H          67.6335   90.3340   14.9605 H       1  UNL1        0.1673
     24 C          66.3231   92.4637   12.1971 C.3     1  UNL1        0.0340
     25 C          67.6826   91.9956   11.7695 C.3     1  UNL1        0.0031
     26 C          65.6941   93.6504   11.5293 C.3     1  UNL1        0.0031
@<TRIPOS>BOND
     1    13    14    1
     2    14     7    1
     3     7     8   ar
     4     8     9   ar
     5     9    10   ar
     6    10     1    1
     7     1     2   ar
     8     2     3   ar
     9     3     4   ar
    10     4     5   ar
    11     5    15    1
    12    15    16    1
    13    15    18    1
    14    18    19   ar
    15    19    20   ar
    16    20    21   ar
    17    21    22   ar
    18    15    24    1
    19    24    25    1
    20    24    26    1
    21     5     6   ar
    22    10    11   ar
    23    11    12   ar
    24    12     7   ar
    25     6     1   ar
    26    22    18   ar
    27    16    17    1
    28    22    23    1
@<TRIPOS>MOLECULE
*****
 26 28 0 0 0
SMALL
GASTEIGER

@<TRIPOS>ATOM
      1 C          62.1775   86.6574   11.5251 C.ar    1  UNL1       -0.0002
      2 C          63.0904   87.5817   12.2749 C.ar    1  UNL1       -0.0000
      3 C          63.8783   87.0717   13.4449 C.ar    1  UNL1       -0.0002
      4 C          63.7534   85.6372   13.8652 C.ar    1  UNL1       -0.0017
      5 C          62.8405   84.7128   13.1155 C.ar    1  UNL1        0.0070
      6 C          62.0526   85.2229   11.9454 C.ar    1  UNL1       -0.0017
      7 C          59.8137   88.1876    8.0151 C.ar    1  UNL1        0.1387
      8 C          60.0282   86.7134    8.1894 C.ar    1  UNL1        0.0369
      9 C          60.8161   86.2033    9.3594 C.ar    1  UNL1        0.0031
     10 C          61.3896   87.1675   10.3551 C.ar    1  UNL1        0.0002
     11 C          61.1751   88.6417   10.1808 C.ar    1  UNL1        0.0031
     12 C          60.3871   89.1518    9.0107 C.ar    1  UNL1        0.0369
     13 C          59.4586   89.9470    6.1367 C.3     1  UNL1        0.2525
     14 O          59.0257   88.6977    6.8450 O.3     1  UNL1       -0.4714
     15 C          62.7155   83.2783   13.5357 C.3     1  UNL1        0.1410
     16 O          62.1231   83.7131   14.8434 O.3     1  UNL1       -0.3771
     17 H          62.0716   84.6814   14.8690 H       1  UNL1        0.2112
     18 C          63.3080   82.8435   12.2281 C.ar    1  UNL1        0.0825
     19 C          64.6237   83.2915   11.6639 C.ar    1  UNL1        0.1157
     20 N          64.8177   82.6093   10.3422 N.ar    1  UNL1       -0.2228
     21 C          63.6220   81.7398   10.0895 C.ar    1  UNL1        0.1749
     22 N          62.6888   81.8845   11.2551 N.ar    1  UNL1       -0.3361
     23 H          61.8223   81.4298   11.3625 H       1  UNL1        0.1673
     24 C          62.5906   81.8439   13.9560 C.3     1  UNL1        0.0340
     25 C          63.8207   81.0029   14.1286 C.3     1  UNL1        0.0031
     26 C          61.2355   81.2503   14.2038 C.3     1  UNL1        0.0031
@<TRIPOS>BOND
     1    13    14    1
     2    14     7    1
     3     7     8   ar
     4     8     9   ar
     5     9    10   ar
     6    10     1    1
     7     1     2   ar
     8     2     3   ar
     9     3     4   ar
    10     4     5   ar
    11     5    15    1
    12    15    16    1
    13    15    18    1
    14    18    19   ar
    15    19    20   ar
    16    20    21   ar
    17    21    22   ar
    18    15    24    1
    19    24    25    1
    20    24    26    1
    21     5     6   ar
    22    10    11   ar
    23    11    12   ar
    24    12     7   ar
    25     6     1   ar
    26    22    18   ar
    27    16    17    1
    28    22    23    1
@<TRIPOS>MOLECULE
*****
 26 28 0 0 0
SMALL
GASTEIGER

@<TRIPOS>ATOM
      1 C          62.9884   87.7754   12.1011 C.ar    1  UNL1       -0.0002
      2 C          62.2401   87.7157   10.8024 C.ar    1  UNL1       -0.0000
      3 C          61.6317   86.4229   10.3461 C.ar    1  UNL1       -0.0002
      4 C          61.7714   85.1896   11.1884 C.ar    1  UNL1       -0.0017
      5 C          62.5197   85.2492   12.4870 C.ar    1  UNL1        0.0070
      6 C          63.1282   86.5421   12.9434 C.ar    1  UNL1       -0.0017
      7 C          64.8138   91.6540   13.4701 C.ar    1  UNL1        0.1387
      8 C          64.1543   91.5688   12.1256 C.ar    1  UNL1        0.0369
      9 C          63.5458   90.2759   11.6692 C.ar    1  UNL1        0.0031
     10 C          63.5969   89.0682   12.5574 C.ar    1  UNL1        0.0002
     11 C          64.2563   89.1534   13.9019 C.ar    1  UNL1        0.0031
     12 C          64.8648   90.4463   14.3583 C.ar    1  UNL1        0.0369
     13 C          66.4633   92.9459   15.0064 C.3     1  UNL1        0.2525
     14 O          65.4223   92.9468   13.9264 O.3     1  UNL1       -0.4714
     15 C          62.6595   84.0160   13.3294 C.3     1  UNL1        0.1410
     16 O          62.0581   84.7439   14.4949 O.3     1  UNL1       -0.3771
     17 H          61.8433   85.6527   14.2325 H       1  UNL1        0.2112
     18 C          63.2609   83.2880   12.1639 C.ar    1  UNL1        0.0825
     19 C          64.5820   83.5913   11.5214 C.ar    1  UNL1        0.1157
     20 N          64.7844   82.6197   10.3967 N.ar    1  UNL1       -0.2228
     21 C          63.5884   81.7160   10.3440 C.ar    1  UNL1        0.1749
     22 N          62.6468   82.1290   11.4362 N.ar    1  UNL1       -0.3361
     23 H          61.7782   81.7125   11.6397 H       1  UNL1        0.1673
     24 C          62.7993   82.7828   14.1718 C.3     1  UNL1        0.0340
     25 C          64.0643   82.5387   14.9401 C.3     1  UNL1        0.0031
     26 C          61.6741   81.7936   14.2459 C.3     1  UNL1        0.0031
@<TRIPOS>BOND
     1    13    14    1
     2    14     7    1
     3     7     8   ar
     4     8     9   ar
     5     9    10   ar
     6    10     1    1
     7     1     2   ar
     8     2     3   ar
     9     3     4   ar
    10     4     5   ar
    11     5    15    1
    12    15    16    1
    13    15    18    1
    14    18    19   ar
    15    19    20   ar
    16    20    21   ar
    17    21    22   ar
    18    15    24    1
    19    24    25    1
    20    24    26    1
    21     5     6   ar
    22    10    11   ar
    23    11    12   ar
    24    12     7   ar
    25     6     1   ar
    26    22    18   ar
    27    16    17    1
    28    22    23    1
@<TRIPOS>MOLECULE
*****
 26 28 0 0 0
SMALL
GASTEIGER

@<TRIPOS>ATOM
      1 C          63.7980   88.6319   13.1973 C.ar    1  UNL1       -0.0002
      2 C          62.9225   89.0761   12.0632 C.ar    1  UNL1       -0.0000
      3 C          62.9310   90.5111   11.6266 C.ar    1  UNL1       -0.0002
      4 C          63.8150   91.5020   12.3241 C.ar    1  UNL1       -0.0017
      5 C          64.6906   91.0579   13.4582 C.ar    1  UNL1        0.0070
      6 C          64.6820   89.6228   13.8948 C.ar    1  UNL1       -0.0017
      7 C          63.7725   84.3268   14.5071 C.ar    1  UNL1        0.1387
      8 C          63.1683   84.7136   13.1897 C.ar    1  UNL1        0.0369
      9 C          63.1769   86.1486   12.7531 C.ar    1  UNL1        0.0031
     10 C          63.7895   87.1969   13.6339 C.ar    1  UNL1        0.0002
     11 C          64.3937   86.8101   14.9512 C.ar    1  UNL1        0.0031
     12 C          64.3851   85.3751   15.3878 C.ar    1  UNL1        0.0369
     13 C          63.5239   81.8038   13.9394 C.3     1  UNL1        0.2525
     14 O          63.7640   82.8918   14.9436 O.3     1  UNL1       -0.4714
     15 C          65.5746   92.0488   14.1557 C.3     1  UNL1        0.1410
     16 O          64.7105   91.9589   15.3785 O.3     1  UNL1       -0.3771
     17 H          63.9853   91.3354   15.2168 H       1  UNL1        0.2112
     18 C          66.4388   92.1387   12.9330 C.ar    1  UNL1        0.0825
     19 C          67.8564   91.6619   12.8181 C.ar    1  UNL1        0.1157
     20 N          68.3308   91.9497   11.4245 N.ar    1  UNL1       -0.2228
     21 C          67.2064   92.6043   10.6781 C.ar    1  UNL1        0.1749
     22 N          66.0371   92.7212   11.6103 N.ar    1  UNL1       -0.3361
     23 H          65.1600   93.1116   11.3924 H       1  UNL1        0.1673
     24 C          66.4587   93.0397   14.8533 C.3     1  UNL1        0.0340
     25 C          66.7833   94.3483   14.1958 C.3     1  UNL1        0.0031
     26 C          67.0181   92.7220   16.2084 C.3     1  UNL1        0.0031
@<TRIPOS>BOND
     1    13    14    1
     2    14     7    1
     3     7     8   ar
     4     8     9   ar
     5     9    10   ar
     6    10     1    1
     7     1     2   ar
     8     2     3   ar
     9     3     4   ar
    10     4     5   ar
    11     5    15    1
    12    15    16    1
    13    15    18    1
    14    18    19   ar
    15    19    20   ar
    16    20    21   ar
    17    21    22   ar
    18    15    24    1
    19    24    25    1
    20    24    26    1
    21     5     6   ar
    22    10    11   ar
    23    11    12   ar
    24    12     7   ar
    25     6     1   ar
    26    22    18   ar
    27    16    17    1
    28    22    23    1
@<TRIPOS>MOLECULE
*****
 26 28 0 0 0
SMALL
GASTEIGER

@<TRIPOS>ATOM
      1 C          63.4487   88.5276   12.6442 C.ar    1  UNL1       -0.0002
      2 C          63.7413   87.1514   13.1641 C.ar    1  UNL1       -0.0000
      3 C          63.0803   85.9579   12.5406 C.ar    1  UNL1       -0.0002
      4 C          62.1267   86.1407   11.3973 C.ar    1  UNL1       -0.0017
      5 C          61.8342   87.5169   10.8774 C.ar    1  UNL1        0.0070
      6 C          62.4951   88.7104   11.5009 C.ar    1  UNL1       -0.0017
      7 C          65.4317   92.1080   14.5147 C.ar    1  UNL1        0.1387
      8 C          65.0306   90.9416   15.3682 C.ar    1  UNL1        0.0369
      9 C          64.3696   89.7481   14.7447 C.ar    1  UNL1        0.0031
     10 C          64.1097   89.7211   13.2677 C.ar    1  UNL1        0.0002
     11 C          64.5107   90.8875   12.4142 C.ar    1  UNL1        0.0031
     12 C          65.1717   92.0810   13.0377 C.ar    1  UNL1        0.0369
     13 C          67.5874   93.4250   15.1215 C.3     1  UNL1        0.2525
     14 O          66.0926   93.3015   15.1382 O.3     1  UNL1       -0.4714
     15 C          60.8806   87.6998    9.7340 C.3     1  UNL1        0.1410
     16 O          61.6652   86.7126    8.9218 O.3     1  UNL1       -0.3771
     17 H          62.4157   86.3884    9.4438 H       1  UNL1        0.2112
     18 C          60.0959   88.6869   10.5462 C.ar    1  UNL1        0.0825
     19 C          60.0207   90.1655   10.3049 C.ar    1  UNL1        0.1157
     20 N          59.1269   90.7613   11.3519 N.ar    1  UNL1       -0.2228
     21 C          58.6497   89.6510   12.2403 C.ar    1  UNL1        0.1749
     22 N          59.2485   88.3689   11.7424 N.ar    1  UNL1       -0.3361
     23 H          59.1098   87.4756   12.1323 H       1  UNL1        0.1673
     24 C          59.9270   87.8826    8.5906 C.3     1  UNL1        0.0340
     25 C          58.9553   86.7939    8.2430 C.3     1  UNL1        0.0031
     26 C          59.9451   89.1539    7.7949 C.3     1  UNL1        0.0031
@<TRIPOS>BOND
     1    13    14    1
     2    14     7    1
     3     7     8   ar
     4     8     9   ar
     5     9    10   ar
     6    10     1    1
     7     1     2   ar
     8     2     3   ar
     9     3     4   ar
    10     4     5   ar
    11     5    15    1
    12    15    16    1
    13    15    18    1
    14    18    19   ar
    15    19    20   ar
    16    20    21   ar
    17    21    22   ar
    18    15    24    1
    19    24    25    1
    20    24    26    1
    21     5     6   ar
    22    10    11   ar
    23    11    12   ar
    24    12     7   ar
    25     6     1   ar
    26    22    18   ar
    27    16    17    1
    28    22    23    1
