@<TRIPOS>MOLECULE
*****
 45 48 0 0 0
SMALL
GASTEIGER

@<TRIPOS>ATOM
      1 C          61.0352   88.8927    9.3450 C.3     1  UNL1        0.0614
      2 C          61.5014   89.8069   10.4389 C.3     1  UNL1        0.0376
      3 C          62.3055   89.2605   11.5813 C.3     1  UNL1        0.0966
      4 N          62.6433   87.7999   11.6297 N.am    1  UNL1       -0.2618
      5 C          63.4474   87.2535   12.7720 C.2     1  UNL1        0.3076
      6 O          63.7853   85.7929   12.8204 O.2     1  UNL1       -0.2523
      7 N          63.9136   88.1678   13.8660 N.am    1  UNL1       -0.2602
      8 C          64.7176   87.6214   15.0083 C.3     1  UNL1        0.1167
      9 C          62.1771   86.8857   10.5357 C.3     1  UNL1        0.1004
     10 C          61.3731   87.4321    9.3934 C.3     1  UNL1        0.0404
     11 C          56.3479   90.7973    4.6919 C.3     1  UNL1        0.0949
     12 C          57.8190   91.0782    4.7756 C.2     1  UNL1        0.2278
     13 O          58.4860   91.9055    3.7170 O.2     1  UNL1       -0.2748
     14 N          58.6230   90.5318    5.9179 N.am    1  UNL1       -0.2552
     15 C          57.9560   89.7046    6.9765 C.3     1  UNL1        0.1129
     16 C          58.7601   89.1582    8.1189 C.3     1  UNL1        0.0940
     17 N          60.2312   89.4391    8.2026 N.3     1  UNL1       -0.2689
     18 C          60.8981   90.2663    7.1440 C.3     1  UNL1        0.1235
     19 C          60.0941   90.8127    6.0017 C.3     1  UNL1        0.2072
     20 O          60.7612   91.6401    4.9430 O.3     1  UNL1       -0.3660
     21 H          61.7058   91.7249    5.1465 H       1  UNL1        0.2123
     22 C          62.5150   85.4250   10.5841 C.ar    1  UNL1       -0.0080
     23 C          62.1452   84.6091   11.7872 C.ar    1  UNL1       -0.0007
     24 C          62.4830   83.1485   11.8356 C.ar    1  UNL1        0.0293
     25 C          63.1907   82.5036   10.6808 C.ar    1  UNL1        0.1398
     26 F          63.5285   81.0430   10.7292 F       1  UNL1       -0.2042
     27 C          63.5605   83.3195    9.4776 C.ar    1  UNL1        0.0251
     28 C          63.2226   84.7802    9.4293 C.ar    1  UNL1       -0.0220
     29 C          63.5924   85.5961    8.2261 C.3     1  UNL1        0.0308
     30 C          63.5757   89.6285   13.8176 C.3     1  UNL1        0.0994
     31 C          62.1563   90.0765   14.0032 C.3     1  UNL1        0.0265
     32 C          64.6573   90.6411   13.5838 C.ar    1  UNL1       -0.0043
     33 C          65.7101   90.8686   14.6277 C.ar    1  UNL1        0.0012
     34 C          66.7918   91.8813   14.3937 C.ar    1  UNL1        0.0711
     35 C          66.8205   92.6664   13.1160 C.ar    1  UNL1        0.0077
     36 C          65.7677   92.4389   12.0720 C.ar    1  UNL1        0.0711
     37 C          64.6861   91.4262   12.3059 C.ar    1  UNL1        0.0012
     38 C          67.8446   92.1089   15.4376 C.3     1  UNL1        0.4186
     39 F          68.8974   92.3364   16.4816 F       1  UNL1       -0.1659
     40 F          68.9125   91.9325   14.3991 F       1  UNL1       -0.1659
     41 F          66.7767   92.2853   16.4762 F       1  UNL1       -0.1659
     42 C          65.7964   93.2239   10.7943 C.3     1  UNL1        0.4186
     43 F          65.8252   94.0091    9.5164 F       1  UNL1       -0.1659
     44 F          66.9104   94.0684   11.3381 F       1  UNL1       -0.1659
     45 F          64.6824   92.3795   10.2504 F       1  UNL1       -0.1659
@<TRIPOS>BOND
     1    11    12    1
     2    12    13    2
     3    12    14   am
     4    14    15    1
     5    15    16    1
     6    16    17    1
     7     1    17    1
     8     1     2    1
     9     2     3    1
    10     3     4    1
    11     4     5   am
    12     5     6    2
    13     5     7   am
    14     7     8    1
    15     7    30    1
    16    30    31    1
    17    30    32    1
    18    32    33   ar
    19    33    34   ar
    20    34    38    1
    21    38    39    1
    22    38    40    1
    23    38    41    1
    24    34    35   ar
    25    35    36   ar
    26    36    42    1
    27    42    43    1
    28    42    44    1
    29    42    45    1
    30    36    37   ar
    31     4     9    1
    32     9    22    1
    33    22    23   ar
    34    23    24   ar
    35    24    25   ar
    36    25    26    1
    37    25    27   ar
    38    27    28   ar
    39    28    29    1
    40     9    10    1
    41    17    18    1
    42    18    19    1
    43    19    20    1
    44    19    14    1
    45    10     1    1
    46    37    32   ar
    47    28    22   ar
    48    20    21    1
@<TRIPOS>MOLECULE
*****
 45 48 0 0 0
SMALL
GASTEIGER

@<TRIPOS>ATOM
      1 C          61.0399   88.8931    9.3427 C.3     1  UNL1        0.0614
      2 C          61.5056   89.8080   10.4363 C.3     1  UNL1        0.0376
      3 C          62.3089   89.2622   11.5795 C.3     1  UNL1        0.0966
      4 N          62.6464   87.8015   11.6291 N.am    1  UNL1       -0.2618
      5 C          63.4497   87.2558   12.7723 C.2     1  UNL1        0.3076
      6 O          63.7872   85.7951   12.8219 O.2     1  UNL1       -0.2523
      7 N          63.9155   88.1706   13.8659 N.am    1  UNL1       -0.2602
      8 C          64.7188   87.6249   15.0091 C.3     1  UNL1        0.1167
      9 C          62.1806   86.8866   10.5355 C.3     1  UNL1        0.1004
     10 C          61.3774   87.4324    9.3923 C.3     1  UNL1        0.0404
     11 C          56.3557   90.7956    4.6857 C.3     1  UNL1        0.0949
     12 C          57.8267   91.0761    4.7700 C.2     1  UNL1        0.2278
     13 O          58.4945   91.9024    3.7111 O.2     1  UNL1       -0.2748
     14 N          58.6300   90.5304    5.9132 N.am    1  UNL1       -0.2552
     15 C          57.9622   89.7041    6.9720 C.3     1  UNL1        0.1129
     16 C          58.7655   89.1583    8.1152 C.3     1  UNL1        0.0940
     17 N          60.2366   89.4388    8.1995 N.3     1  UNL1       -0.2689
     18 C          60.9044   90.2651    7.1407 C.3     1  UNL1        0.1235
     19 C          60.1011   90.8109    5.9975 C.3     1  UNL1        0.2072
     20 O          60.7690   91.6372    4.9386 O.3     1  UNL1       -0.3660
     21 H          61.7135   91.7220    5.1425 H       1  UNL1        0.2123
     22 C          62.5181   85.4259   10.5851 C.ar    1  UNL1       -0.0080
     23 C          62.1480   84.6110   11.7888 C.ar    1  UNL1       -0.0007
     24 C          62.4854   83.1504   11.8384 C.ar    1  UNL1        0.0293
     25 C          63.1931   82.5045   10.6842 C.ar    1  UNL1        0.1398
     26 F          63.5306   81.0438   10.7339 F       1  UNL1       -0.2042
     27 C          63.5633   83.3193    9.4805 C.ar    1  UNL1        0.0251
     28 C          63.2258   84.7800    9.4309 C.ar    1  UNL1       -0.0220
     29 C          63.5960   85.5949    8.2272 C.3     1  UNL1        0.0308
     30 C          63.5780   89.6314   13.8163 C.3     1  UNL1        0.0994
     31 C          62.1582   90.0797   13.9984 C.3     1  UNL1        0.0265
     32 C          64.6603   90.6438   13.5846 C.ar    1  UNL1       -0.0043
     33 C          64.6921   91.4285   12.3067 C.ar    1  UNL1        0.0012
     34 C          65.7745   92.4409   12.0750 C.ar    1  UNL1        0.0711
     35 C          66.8249   92.6685   13.1213 C.ar    1  UNL1        0.0077
     36 C          66.7931   91.8838   14.3993 C.ar    1  UNL1        0.0711
     37 C          65.7108   90.8714   14.6309 C.ar    1  UNL1        0.0012
     38 C          65.8064   93.2257   10.7971 C.3     1  UNL1        0.4186
     39 F          65.8382   94.0104    9.5191 F       1  UNL1       -0.1659
     40 F          66.9213   94.0681   11.3422 F       1  UNL1       -0.1659
     41 F          64.6915   92.3832   10.2519 F       1  UNL1       -0.1659
     42 C          67.8435   92.1114   15.4455 C.3     1  UNL1        0.4186
     43 F          68.8940   92.3391   16.4919 F       1  UNL1       -0.1659
     44 F          66.7734   92.2839   16.4824 F       1  UNL1       -0.1659
     45 F          68.9136   91.9390   14.4087 F       1  UNL1       -0.1659
@<TRIPOS>BOND
     1    11    12    1
     2    12    13    2
     3    12    14   am
     4    14    15    1
     5    15    16    1
     6    16    17    1
     7     1    17    1
     8     1     2    1
     9     2     3    1
    10     3     4    1
    11     4     5   am
    12     5     6    2
    13     5     7   am
    14     7     8    1
    15     7    30    1
    16    30    31    1
    17    30    32    1
    18    32    33   ar
    19    33    34   ar
    20    34    38    1
    21    38    39    1
    22    38    40    1
    23    38    41    1
    24    34    35   ar
    25    35    36   ar
    26    36    42    1
    27    42    43    1
    28    42    44    1
    29    42    45    1
    30    36    37   ar
    31     4     9    1
    32     9    22    1
    33    22    23   ar
    34    23    24   ar
    35    24    25   ar
    36    25    26    1
    37    25    27   ar
    38    27    28   ar
    39    28    29    1
    40     9    10    1
    41    17    18    1
    42    18    19    1
    43    19    20    1
    44    19    14    1
    45    10     1    1
    46    37    32   ar
    47    28    22   ar
    48    20    21    1
@<TRIPOS>MOLECULE
*****
 45 48 0 0 0
SMALL
GASTEIGER

@<TRIPOS>ATOM
      1 C          63.0265   89.2554   12.1300 C.3     1  UNL1        0.0614
      2 C          62.0758   89.9294   11.1857 C.3     1  UNL1        0.0376
      3 C          61.3780   89.1295   10.1259 C.3     1  UNL1        0.0966
      4 N          61.6311   87.6556   10.0103 N.am    1  UNL1       -0.2618
      5 C          60.9333   86.8557    8.9504 C.2     1  UNL1        0.3076
      6 O          61.1864   85.3817    8.8348 O.2     1  UNL1       -0.2523
      7 N          59.9826   87.5297    8.0061 N.am    1  UNL1       -0.2602
      8 C          59.2849   86.7298    6.9463 C.3     1  UNL1        0.1167
      9 C          62.5818   86.9816   10.9546 C.3     1  UNL1        0.1004
     10 C          63.2795   87.7815   12.0144 C.3     1  UNL1        0.0404
     11 C          67.0860   93.1863   16.0439 C.3     1  UNL1        0.0949
     12 C          65.8174   92.4551   16.3695 C.2     1  UNL1        0.2278
     13 O          65.2466   92.5237   17.7549 O.2     1  UNL1       -0.2748
     14 N          65.1197   91.6552   15.3096 N.am    1  UNL1       -0.2552
     15 C          65.6905   91.5865   13.9242 C.3     1  UNL1        0.1129
     16 C          64.9928   90.7866   12.8643 C.3     1  UNL1        0.0940
     17 N          63.7242   90.0553   13.1899 N.3     1  UNL1       -0.2689
     18 C          63.1534   90.1240   14.5753 C.3     1  UNL1        0.1235
     19 C          63.8512   90.9239   15.6352 C.3     1  UNL1        0.2072
     20 O          63.2803   90.9925   17.0206 O.3     1  UNL1       -0.3660
     21 H          62.4651   90.4683   17.0608 H       1  UNL1        0.2123
     22 C          62.8349   85.5075   10.8390 C.ar    1  UNL1       -0.0080
     23 C          63.3951   84.9401    9.5685 C.ar    1  UNL1       -0.0007
     24 C          63.6481   83.4661    9.4529 C.ar    1  UNL1        0.0293
     25 C          63.3410   82.5596   10.6079 C.ar    1  UNL1        0.1398
     26 F          63.5941   81.0856   10.4923 F       1  UNL1       -0.2042
     27 C          62.7808   83.1270   11.8784 C.ar    1  UNL1        0.0251
     28 C          62.5277   84.6010   11.9939 C.ar    1  UNL1       -0.0220
     29 C          61.9675   85.1685   13.2644 C.3     1  UNL1        0.0308
     30 C          59.7295   89.0037    8.1217 C.3     1  UNL1        0.0994
     31 C          59.7434   89.6637    9.4686 C.3     1  UNL1        0.0265
     32 C          59.4626   89.8177    6.8904 C.ar    1  UNL1       -0.0043
     33 C          60.6052   90.2867    6.0391 C.ar    1  UNL1        0.0012
     34 C          60.3382   91.1007    4.8077 C.ar    1  UNL1        0.0711
     35 C          58.9288   91.4456    4.4276 C.ar    1  UNL1        0.0077
     36 C          57.7863   90.9766    5.2789 C.ar    1  UNL1        0.0711
     37 C          58.0531   90.1626    6.5102 C.ar    1  UNL1        0.0012
     38 C          61.4807   91.5697    3.9565 C.3     1  UNL1        0.4186
     39 F          62.6233   92.0387    3.1052 F       1  UNL1       -0.1659
     40 F          60.6507   92.7241    3.4784 F       1  UNL1       -0.1659
     41 F          62.3108   90.4154    4.4345 F       1  UNL1       -0.1659
     42 C          56.3768   91.3215    4.8988 C.3     1  UNL1        0.4186
     43 F          54.9673   91.6664    4.5188 F       1  UNL1       -0.1659
     44 F          55.8646   90.4457    6.0035 F       1  UNL1       -0.1659
     45 F          56.8891   92.1973    3.7941 F       1  UNL1       -0.1659
@<TRIPOS>BOND
     1    11    12    1
     2    12    13    2
     3    12    14   am
     4    14    15    1
     5    15    16    1
     6    16    17    1
     7     1    17    1
     8     1     2    1
     9     2     3    1
    10     3     4    1
    11     4     5   am
    12     5     6    2
    13     5     7   am
    14     7     8    1
    15     7    30    1
    16    30    31    1
    17    30    32    1
    18    32    33   ar
    19    33    34   ar
    20    34    38    1
    21    38    39    1
    22    38    40    1
    23    38    41    1
    24    34    35   ar
    25    35    36   ar
    26    36    42    1
    27    42    43    1
    28    42    44    1
    29    42    45    1
    30    36    37   ar
    31     4     9    1
    32     9    22    1
    33    22    23   ar
    34    23    24   ar
    35    24    25   ar
    36    25    26    1
    37    25    27   ar
    38    27    28   ar
    39    28    29    1
    40     9    10    1
    41    17    18    1
    42    18    19    1
    43    19    20    1
    44    19    14    1
    45    10     1    1
    46    37    32   ar
    47    28    22   ar
    48    20    21    1
@<TRIPOS>MOLECULE
*****
 45 48 0 0 0
SMALL
GASTEIGER

@<TRIPOS>ATOM
      1 C          63.0244   89.2482   12.1260 C.3     1  UNL1        0.0614
      2 C          62.0773   89.9242   11.1795 C.3     1  UNL1        0.0376
      3 C          61.3811   89.1259   10.1175 C.3     1  UNL1        0.0966
      4 N          61.6320   87.6516   10.0019 N.am    1  UNL1       -0.2618
      5 C          60.9358   86.8532    8.9399 C.2     1  UNL1        0.3076
      6 O          61.1867   85.3789    8.8243 O.2     1  UNL1       -0.2523
      7 N          59.9887   87.5292    7.9934 N.am    1  UNL1       -0.2602
      8 C          59.2925   86.7309    6.9313 C.3     1  UNL1        0.1167
      9 C          62.5791   86.9756   10.9484 C.3     1  UNL1        0.1004
     10 C          63.2753   87.7739   12.0105 C.3     1  UNL1        0.0404
     11 C          67.0769   93.1752   16.0510 C.3     1  UNL1        0.0949
     12 C          65.8092   92.4415   16.3743 C.2     1  UNL1        0.2278
     13 O          65.2378   92.5061   17.7596 O.2     1  UNL1       -0.2748
     14 N          65.1130   91.6432   15.3122 N.am    1  UNL1       -0.2552
     15 C          65.6845   91.5786   13.9269 C.3     1  UNL1        0.1129
     16 C          64.9883   90.7803   12.8648 C.3     1  UNL1        0.0940
     17 N          63.7206   90.0465   13.1881 N.3     1  UNL1       -0.2689
     18 C          63.1491   90.1111   14.5734 C.3     1  UNL1        0.1235
     19 C          63.8453   90.9095   15.6355 C.3     1  UNL1        0.2072
     20 O          63.2738   90.9740   17.0209 O.3     1  UNL1       -0.3660
     21 H          62.4593   90.4487   17.0594 H       1  UNL1        0.2123
     22 C          62.8301   85.5012   10.8329 C.ar    1  UNL1       -0.0080
     23 C          63.3853   84.9323    9.5609 C.ar    1  UNL1       -0.0007
     24 C          63.6363   83.4580    9.4453 C.ar    1  UNL1        0.0293
     25 C          63.3321   82.5525   10.6019 C.ar    1  UNL1        0.1398
     26 F          63.5830   81.0782   10.4863 F       1  UNL1       -0.2042
     27 C          62.7768   83.1213   11.8739 C.ar    1  UNL1        0.0251
     28 C          62.5258   84.5957   11.9894 C.ar    1  UNL1       -0.0220
     29 C          61.9706   85.1646   13.2615 C.3     1  UNL1        0.0308
     30 C          59.7377   89.0036    8.1089 C.3     1  UNL1        0.0994
     31 C          59.7517   89.6635    9.4559 C.3     1  UNL1        0.0265
     32 C          59.4727   89.8180    6.8774 C.ar    1  UNL1       -0.0043
     33 C          58.0639   90.1632    6.4953 C.ar    1  UNL1        0.0012
     34 C          57.7990   90.9776    5.2638 C.ar    1  UNL1        0.0711
     35 C          58.9428   91.4469    4.4145 C.ar    1  UNL1        0.0077
     36 C          60.3517   91.1018    4.7967 C.ar    1  UNL1        0.0711
     37 C          60.6166   90.2874    6.0281 C.ar    1  UNL1        0.0012
     38 C          56.3901   91.3228    4.8816 C.3     1  UNL1        0.4186
     39 F          54.9813   91.6679    4.4994 F       1  UNL1       -0.1659
     40 F          55.8762   90.4508    5.9886 F       1  UNL1       -0.1659
     41 F          56.9040   92.1947    3.7745 F       1  UNL1       -0.1659
     42 C          61.4955   91.5711    3.9475 C.3     1  UNL1        0.4186
     43 F          62.6395   92.0405    3.0982 F       1  UNL1       -0.1659
     44 F          60.6684   92.7290    3.4732 F       1  UNL1       -0.1659
     45 F          62.3227   90.4132    4.4217 F       1  UNL1       -0.1659
@<TRIPOS>BOND
     1    11    12    1
     2    12    13    2
     3    12    14   am
     4    14    15    1
     5    15    16    1
     6    16    17    1
     7     1    17    1
     8     1     2    1
     9     2     3    1
    10     3     4    1
    11     4     5   am
    12     5     6    2
    13     5     7   am
    14     7     8    1
    15     7    30    1
    16    30    31    1
    17    30    32    1
    18    32    33   ar
    19    33    34   ar
    20    34    38    1
    21    38    39    1
    22    38    40    1
    23    38    41    1
    24    34    35   ar
    25    35    36   ar
    26    36    42    1
    27    42    43    1
    28    42    44    1
    29    42    45    1
    30    36    37   ar
    31     4     9    1
    32     9    22    1
    33    22    23   ar
    34    23    24   ar
    35    24    25   ar
    36    25    26    1
    37    25    27   ar
    38    27    28   ar
    39    28    29    1
    40     9    10    1
    41    17    18    1
    42    18    19    1
    43    19    20    1
    44    19    14    1
    45    10     1    1
    46    37    32   ar
    47    28    22   ar
    48    20    21    1
@<TRIPOS>MOLECULE
*****
 45 48 0 0 0
SMALL
GASTEIGER

@<TRIPOS>ATOM
      1 C          63.3538   89.6384   11.8336 C.3     1  UNL1        0.0614
      2 C          62.3443   90.2903   10.9360 C.3     1  UNL1        0.0376
      3 C          61.4465   89.4471   10.0799 C.3     1  UNL1        0.0966
      4 N          61.5583   87.9519   10.1213 N.am    1  UNL1       -0.2618
      5 C          60.6606   87.1086    9.2651 C.2     1  UNL1        0.3076
      6 O          60.7724   85.6134    9.3066 O.2     1  UNL1       -0.2523
      7 N          59.6510   87.7606    8.3676 N.am    1  UNL1       -0.2602
      8 C          58.7533   86.9174    7.5114 C.3     1  UNL1        0.1167
      9 C          62.5679   87.2999   11.0188 C.3     1  UNL1        0.1004
     10 C          63.4657   88.1431   11.8750 C.3     1  UNL1        0.0404
     11 C          67.3051   92.5573   16.6416 C.3     1  UNL1        0.0949
     12 C          66.9448   93.0113   15.2582 C.2     1  UNL1        0.2278
     13 O          67.4824   94.3086   14.7308 O.2     1  UNL1       -0.2748
     14 N          66.0471   92.1681   14.4020 N.am    1  UNL1       -0.2552
     15 C          65.5096   90.8708   14.9293 C.3     1  UNL1        0.1129
     16 C          64.6118   90.0276   14.0732 C.3     1  UNL1        0.0940
     17 N          64.2516   90.4816   12.6897 N.3     1  UNL1       -0.2689
     18 C          64.7891   91.7789   12.1624 C.3     1  UNL1        0.1235
     19 C          65.6869   92.6221   13.0185 C.3     1  UNL1        0.2072
     20 O          66.2244   93.9195   12.4911 O.3     1  UNL1       -0.3660
     21 H          65.8974   94.0621   11.5891 H       1  UNL1        0.2123
     22 C          62.6798   85.8046   11.0603 C.ar    1  UNL1       -0.0080
     23 C          62.2781   85.0565   12.2968 C.ar    1  UNL1       -0.0007
     24 C          62.3899   83.5613   12.3383 C.ar    1  UNL1        0.0293
     25 C          62.9034   82.8141   11.1433 C.ar    1  UNL1        0.1398
     26 F          63.0153   81.3189   11.1848 F       1  UNL1       -0.2042
     27 C          63.3051   83.5622    9.9067 C.ar    1  UNL1        0.0251
     28 C          63.1932   85.0575    9.8653 C.ar    1  UNL1       -0.0220
     29 C          63.5949   85.8056    8.6288 C.3     1  UNL1        0.0308
     30 C          59.5392   89.2559    8.3261 C.3     1  UNL1        0.0994
     31 C          59.6512   90.0518    9.5926 C.3     1  UNL1        0.0265
     32 C          59.3153   89.9553    7.0182 C.ar    1  UNL1       -0.0043
     33 C          57.9218   90.2913    6.5762 C.ar    1  UNL1        0.0012
     34 C          57.6980   90.9907    5.2682 C.ar    1  UNL1        0.0711
     35 C          58.8676   91.3541    4.4023 C.ar    1  UNL1        0.0077
     36 C          60.2611   91.0181    4.8442 C.ar    1  UNL1        0.0711
     37 C          60.4850   90.3187    6.1522 C.ar    1  UNL1        0.0012
     38 C          56.3045   91.3267    4.8263 C.3     1  UNL1        0.4186
     39 F          54.9111   91.6627    4.3843 F       1  UNL1       -0.1659
     40 F          56.8597   92.1666    3.7143 F       1  UNL1       -0.1659
     41 F          55.7494   90.4868    5.9382 F       1  UNL1       -0.1659
     42 C          61.4307   91.3815    3.9783 C.3     1  UNL1        0.4186
     43 F          62.6004   91.7448    3.1123 F       1  UNL1       -0.1659
     44 F          62.1398   90.1328    4.4120 F       1  UNL1       -0.1659
     45 F          60.7216   92.6301    3.5445 F       1  UNL1       -0.1659
@<TRIPOS>BOND
     1    11    12    1
     2    12    13    2
     3    12    14   am
     4    14    15    1
     5    15    16    1
     6    16    17    1
     7     1    17    1
     8     1     2    1
     9     2     3    1
    10     3     4    1
    11     4     5   am
    12     5     6    2
    13     5     7   am
    14     7     8    1
    15     7    30    1
    16    30    31    1
    17    30    32    1
    18    32    33   ar
    19    33    34   ar
    20    34    38    1
    21    38    39    1
    22    38    40    1
    23    38    41    1
    24    34    35   ar
    25    35    36   ar
    26    36    42    1
    27    42    43    1
    28    42    44    1
    29    42    45    1
    30    36    37   ar
    31     4     9    1
    32     9    22    1
    33    22    23   ar
    34    23    24   ar
    35    24    25   ar
    36    25    26    1
    37    25    27   ar
    38    27    28   ar
    39    28    29    1
    40     9    10    1
    41    17    18    1
    42    18    19    1
    43    19    20    1
    44    19    14    1
    45    10     1    1
    46    37    32   ar
    47    28    22   ar
    48    20    21    1
@<TRIPOS>MOLECULE
*****
 45 48 0 0 0
SMALL
GASTEIGER

@<TRIPOS>ATOM
      1 C          63.3599   89.6357   11.8497 C.3     1  UNL1        0.0614
      2 C          62.3524   90.2865   10.9490 C.3     1  UNL1        0.0376
      3 C          61.4516   89.4420   10.0974 C.3     1  UNL1        0.0966
      4 N          61.5583   87.9466   10.1464 N.am    1  UNL1       -0.2618
      5 C          60.6575   87.1021    9.2948 C.2     1  UNL1        0.3076
      6 O          60.7643   85.6067    9.3438 O.2     1  UNL1       -0.2523
      7 N          59.6500   87.7529    8.3941 N.am    1  UNL1       -0.2602
      8 C          58.7492   86.9083    7.5425 C.3     1  UNL1        0.1167
      9 C          62.5659   87.2958   11.0471 C.3     1  UNL1        0.1004
     10 C          63.4667   88.1404   11.8988 C.3     1  UNL1        0.0404
     11 C          67.3240   92.5646   16.6411 C.3     1  UNL1        0.0949
     12 C          66.9631   93.0139   15.2563 C.2     1  UNL1        0.2278
     13 O          67.5031   94.3078   14.7231 O.2     1  UNL1       -0.2748
     14 N          66.0623   92.1694   14.4046 N.am    1  UNL1       -0.2552
     15 C          65.5224   90.8755   14.9378 C.3     1  UNL1        0.1129
     16 C          64.6216   90.0310   14.0862 C.3     1  UNL1        0.0940
     17 N          64.2607   90.4803   12.7013 N.3     1  UNL1       -0.2689
     18 C          64.8007   91.7741   12.1681 C.3     1  UNL1        0.1235
     19 C          65.7015   92.6187   13.0198 C.3     1  UNL1        0.2072
     20 O          66.2414   93.9126   12.4865 O.3     1  UNL1       -0.3660
     21 H          65.9136   94.0524   11.5843 H       1  UNL1        0.2123
     22 C          62.6726   85.8004   11.0962 C.ar    1  UNL1       -0.0080
     23 C          62.2716   85.0602   12.3377 C.ar    1  UNL1       -0.0007
     24 C          62.3783   83.5648   12.3868 C.ar    1  UNL1        0.0293
     25 C          62.8862   82.8096   11.1944 C.ar    1  UNL1        0.1398
     26 F          62.9929   81.3142   11.2435 F       1  UNL1       -0.2042
     27 C          63.2872   83.5497    9.9529 C.ar    1  UNL1        0.0251
     28 C          63.1805   85.0452    9.9038 C.ar    1  UNL1       -0.0220
     29 C          63.5815   85.7854    8.6624 C.3     1  UNL1        0.0308
     30 C          59.5432   89.2483    8.3450 C.3     1  UNL1        0.0994
     31 C          59.6544   90.0500    9.6079 C.3     1  UNL1        0.0265
     32 C          59.3253   89.9420    7.0331 C.ar    1  UNL1       -0.0043
     33 C          60.4989   90.3022    6.1711 C.ar    1  UNL1        0.0012
     34 C          60.2810   90.9959    4.8591 C.ar    1  UNL1        0.0711
     35 C          58.8895   91.3294    4.4091 C.ar    1  UNL1        0.0077
     36 C          57.7159   90.9692    5.2711 C.ar    1  UNL1        0.0711
     37 C          57.9338   90.2755    6.5830 C.ar    1  UNL1        0.0012
     38 C          61.4545   91.3561    3.9971 C.3     1  UNL1        0.4186
     39 F          62.6281   91.7164    3.1352 F       1  UNL1       -0.1659
     40 F          60.7774   92.6377    3.6108 F       1  UNL1       -0.1659
     41 F          62.1316   90.0746    4.3835 F       1  UNL1       -0.1659
     42 C          56.3244   91.3027    4.8211 C.3     1  UNL1        0.4186
     43 F          54.9329   91.6362    4.3710 F       1  UNL1       -0.1659
     44 F          56.8845   92.1400    3.7097 F       1  UNL1       -0.1659
     45 F          55.7644   90.4654    5.9325 F       1  UNL1       -0.1659
@<TRIPOS>BOND
     1    11    12    1
     2    12    13    2
     3    12    14   am
     4    14    15    1
     5    15    16    1
     6    16    17    1
     7     1    17    1
     8     1     2    1
     9     2     3    1
    10     3     4    1
    11     4     5   am
    12     5     6    2
    13     5     7   am
    14     7     8    1
    15     7    30    1
    16    30    31    1
    17    30    32    1
    18    32    33   ar
    19    33    34   ar
    20    34    38    1
    21    38    39    1
    22    38    40    1
    23    38    41    1
    24    34    35   ar
    25    35    36   ar
    26    36    42    1
    27    42    43    1
    28    42    44    1
    29    42    45    1
    30    36    37   ar
    31     4     9    1
    32     9    22    1
    33    22    23   ar
    34    23    24   ar
    35    24    25   ar
    36    25    26    1
    37    25    27   ar
    38    27    28   ar
    39    28    29    1
    40     9    10    1
    41    17    18    1
    42    18    19    1
    43    19    20    1
    44    19    14    1
    45    10     1    1
    46    37    32   ar
    47    28    22   ar
    48    20    21    1
@<TRIPOS>MOLECULE
*****
 45 48 0 0 0
SMALL
GASTEIGER

@<TRIPOS>ATOM
      1 C          62.8462   86.0831   12.1880 C.3     1  UNL1        0.0614
      2 C          63.6027   87.1703   12.8919 C.3     1  UNL1        0.0376
      3 C          63.4817   88.5909   12.4258 C.3     1  UNL1        0.0966
      4 N          62.6043   88.9243   11.2558 N.am    1  UNL1       -0.2618
      5 C          62.4833   90.3449   10.7897 C.2     1  UNL1        0.3076
      6 O          61.6058   90.6782    9.6197 O.2     1  UNL1       -0.2523
      7 N          63.2398   91.4321   11.4936 N.am    1  UNL1       -0.2602
      8 C          63.1189   92.8527   11.0275 C.3     1  UNL1        0.1167
      9 C          61.8477   87.8370   10.5519 C.3     1  UNL1        0.1004
     10 C          61.9687   86.4164   11.0180 C.3     1  UNL1        0.0404
     11 C          62.6768   79.2976   13.2736 C.3     1  UNL1        0.0949
     12 C          63.3300   80.4006   14.0524 C.2     1  UNL1        0.2278
     13 O          64.1041   80.0831   15.2973 O.2     1  UNL1       -0.2748
     14 N          63.2090   81.8212   13.5863 N.am    1  UNL1       -0.2552
     15 C          62.4349   82.1388   12.3414 C.3     1  UNL1        0.1129
     16 C          62.3140   83.5594   11.8753 C.3     1  UNL1        0.0940
     17 N          62.9671   84.6625   12.6541 N.3     1  UNL1       -0.2689
     18 C          63.7412   84.3449   13.8990 C.3     1  UNL1        0.1235
     19 C          63.8622   82.9243   14.3651 C.3     1  UNL1        0.2072
     20 O          64.6364   82.6068   15.6101 O.3     1  UNL1       -0.3660
     21 H          64.9906   83.4267   15.9885 H       1  UNL1        0.2123
     22 C          60.9702   88.1703    9.3819 C.ar    1  UNL1       -0.0080
     23 C          60.1619   89.4339    9.3866 C.ar    1  UNL1       -0.0007
     24 C          59.2844   89.7672    8.2166 C.ar    1  UNL1        0.0293
     25 C          59.2152   88.8369    7.0419 C.ar    1  UNL1        0.1398
     26 F          58.3377   89.1703    5.8719 F       1  UNL1       -0.2042
     27 C          60.0235   87.5734    7.0372 C.ar    1  UNL1        0.0251
     28 C          60.9010   87.2401    8.2072 C.ar    1  UNL1       -0.0220
     29 C          61.7094   85.9765    8.2026 C.3     1  UNL1        0.0308
     30 C          64.1173   91.0988   12.6636 C.3     1  UNL1        0.0994
     31 C          63.5441   90.3847   13.8517 C.3     1  UNL1        0.0265
     32 C          65.5681   91.4796   12.6456 C.ar    1  UNL1       -0.0043
     33 C          66.2597   91.7372   11.3397 C.ar    1  UNL1        0.0012
     34 C          67.7105   92.1181   11.3218 C.ar    1  UNL1        0.0711
     35 C          68.4696   92.2413   12.6096 C.ar    1  UNL1        0.0077
     36 C          67.7779   91.9837   13.9155 C.ar    1  UNL1        0.0711
     37 C          66.3272   91.6029   13.9335 C.ar    1  UNL1        0.0012
     38 C          68.4021   92.3757   10.0159 C.3     1  UNL1        0.4186
     39 F          69.0938   92.6333    8.7100 F       1  UNL1       -0.1659
     40 F          68.3730   90.9073    9.7108 F       1  UNL1       -0.1659
     41 F          68.4313   93.8440   10.3210 F       1  UNL1       -0.1659
     42 C          68.5370   92.1069   15.2033 C.3     1  UNL1        0.4186
     43 F          69.2961   92.2300   16.4912 F       1  UNL1       -0.1659
     44 F          67.2679   91.8876   15.9723 F       1  UNL1       -0.1659
     45 F          69.8061   92.3261   14.4343 F       1  UNL1       -0.1659
@<TRIPOS>BOND
     1    11    12    1
     2    12    13    2
     3    12    14   am
     4    14    15    1
     5    15    16    1
     6    16    17    1
     7     1    17    1
     8     1     2    1
     9     2     3    1
    10     3     4    1
    11     4     5   am
    12     5     6    2
    13     5     7   am
    14     7     8    1
    15     7    30    1
    16    30    31    1
    17    30    32    1
    18    32    33   ar
    19    33    34   ar
    20    34    38    1
    21    38    39    1
    22    38    40    1
    23    38    41    1
    24    34    35   ar
    25    35    36   ar
    26    36    42    1
    27    42    43    1
    28    42    44    1
    29    42    45    1
    30    36    37   ar
    31     4     9    1
    32     9    22    1
    33    22    23   ar
    34    23    24   ar
    35    24    25   ar
    36    25    26    1
    37    25    27   ar
    38    27    28   ar
    39    28    29    1
    40     9    10    1
    41    17    18    1
    42    18    19    1
    43    19    20    1
    44    19    14    1
    45    10     1    1
    46    37    32   ar
    47    28    22   ar
    48    20    21    1
@<TRIPOS>MOLECULE
*****
 45 48 0 0 0
SMALL
GASTEIGER

@<TRIPOS>ATOM
      1 C          62.8260   86.0891   12.1631 C.3     1  UNL1        0.0614
      2 C          63.5842   87.1765   12.8650 C.3     1  UNL1        0.0376
      3 C          63.4667   88.5962   12.3953 C.3     1  UNL1        0.0966
      4 N          62.5910   88.9285   11.2237 N.am    1  UNL1       -0.2618
      5 C          62.4735   90.3482   10.7540 C.2     1  UNL1        0.3076
      6 O          61.5977   90.6805    9.5824 O.2     1  UNL1       -0.2523
      7 N          63.2317   91.4356   11.4559 N.am    1  UNL1       -0.2602
      8 C          63.1141   92.8553   10.9862 C.3     1  UNL1        0.1167
      9 C          61.8328   87.8411   10.5219 C.3     1  UNL1        0.1004
     10 C          61.9503   86.4214   10.9916 C.3     1  UNL1        0.0404
     11 C          62.6515   79.3053   13.2587 C.3     1  UNL1        0.0949
     12 C          63.2961   80.4103   14.0419 C.2     1  UNL1        0.2278
     13 O          64.0583   80.0955   15.2949 O.2     1  UNL1       -0.2748
     14 N          63.1786   81.8300   13.5722 N.am    1  UNL1       -0.2552
     15 C          62.4165   82.1448   12.3193 C.3     1  UNL1        0.1129
     16 C          62.2990   83.5645   11.8496 C.3     1  UNL1        0.0940
     17 N          62.9436   84.6694   12.6328 N.3     1  UNL1       -0.2689
     18 C          63.7057   84.3546   13.8858 C.3     1  UNL1        0.1235
     19 C          63.8232   82.9349   14.3555 C.3     1  UNL1        0.2072
     20 O          64.5854   82.6201   15.6086 O.3     1  UNL1       -0.3660
     21 H          64.9352   83.4410   15.9890 H       1  UNL1        0.2123
     22 C          60.9570   88.1734    9.3502 C.ar    1  UNL1       -0.0080
     23 C          60.1688   89.4496    9.3411 C.ar    1  UNL1       -0.0007
     24 C          59.2930   89.7819    8.1696 C.ar    1  UNL1        0.0293
     25 C          59.2055   88.8380    7.0070 C.ar    1  UNL1        0.1398
     26 F          58.3297   89.1703    5.8355 F       1  UNL1       -0.2042
     27 C          59.9937   87.5618    7.0161 C.ar    1  UNL1        0.0251
     28 C          60.8695   87.2295    8.1877 C.ar    1  UNL1       -0.0220
     29 C          61.6577   85.9534    8.1968 C.3     1  UNL1        0.0308
     30 C          64.1074   91.1033   12.6275 C.3     1  UNL1        0.0994
     31 C          63.5322   90.3909   13.8156 C.3     1  UNL1        0.0265
     32 C          65.5583   91.4835   12.6110 C.ar    1  UNL1       -0.0043
     33 C          66.3153   91.6099   13.8999 C.ar    1  UNL1        0.0012
     34 C          67.7662   91.9900   13.8833 C.ar    1  UNL1        0.0711
     35 C          68.4602   92.2438   12.5780 C.ar    1  UNL1        0.0077
     36 C          67.7033   92.1174   11.2892 C.ar    1  UNL1        0.0711
     37 C          66.2524   91.7372   11.3056 C.ar    1  UNL1        0.0012
     38 C          68.5232   92.1164   15.1722 C.3     1  UNL1        0.4186
     39 F          69.2801   92.2428   16.4610 F       1  UNL1       -0.1659
     40 F          67.2596   91.8616   15.9392 F       1  UNL1       -0.1659
     41 F          69.7867   92.3713   14.4051 F       1  UNL1       -0.1659
     42 C          68.3973   92.3711    9.9838 C.3     1  UNL1        0.4186
     43 F          69.0913   92.6249    8.6784 F       1  UNL1       -0.1659
     44 F          68.4178   93.8413   10.2805 F       1  UNL1       -0.1659
     45 F          68.3768   90.9009    9.6871 F       1  UNL1       -0.1659
@<TRIPOS>BOND
     1    11    12    1
     2    12    13    2
     3    12    14   am
     4    14    15    1
     5    15    16    1
     6    16    17    1
     7     1    17    1
     8     1     2    1
     9     2     3    1
    10     3     4    1
    11     4     5   am
    12     5     6    2
    13     5     7   am
    14     7     8    1
    15     7    30    1
    16    30    31    1
    17    30    32    1
    18    32    33   ar
    19    33    34   ar
    20    34    38    1
    21    38    39    1
    22    38    40    1
    23    38    41    1
    24    34    35   ar
    25    35    36   ar
    26    36    42    1
    27    42    43    1
    28    42    44    1
    29    42    45    1
    30    36    37   ar
    31     4     9    1
    32     9    22    1
    33    22    23   ar
    34    23    24   ar
    35    24    25   ar
    36    25    26    1
    37    25    27   ar
    38    27    28   ar
    39    28    29    1
    40     9    10    1
    41    17    18    1
    42    18    19    1
    43    19    20    1
    44    19    14    1
    45    10     1    1
    46    37    32   ar
    47    28    22   ar
    48    20    21    1
