@<TRIPOS>MOLECULE
*****
 36 38 0 0 0
SMALL
GASTEIGER

@<TRIPOS>ATOM
      1 C          63.7065   83.3493   12.3241 C.3     1  UNL1        0.1499
      2 C          63.6647   83.6979   10.8657 C.2     1  UNL1        0.2436
      3 O          64.4838   82.9141    9.8835 O.2     1  UNL1       -0.2731
      4 N          62.8038   84.8302   10.3896 N.am    1  UNL1       -0.2747
      5 C          62.7620   85.1788    8.9313 C.3     1  UNL1        0.1151
      6 C          61.9011   86.3111    8.4552 C.3     1  UNL1        0.1182
      7 N          61.0820   87.0948    9.4375 N.am    1  UNL1       -0.2425
      8 C          60.2211   88.2272    8.9613 C.2     1  UNL1        0.4053
      9 O          59.4020   89.0110    9.9436 O.2     1  UNL1       -0.2262
     10 C          61.1238   86.7463   10.8958 C.3     1  UNL1        0.1182
     11 C          61.9847   85.6140   11.3718 C.3     1  UNL1        0.1151
     12 O          60.1793   88.5758    7.5030 O.3     1  UNL1       -0.4289
     13 C          58.9029   89.0646    6.8850 C.3     1  UNL1        0.2447
     14 C          58.9280   90.2150    5.9228 C.ar    1  UNL1        0.0714
     15 C          57.7296   90.9227    5.3633 C.ar    1  UNL1        0.1053
     16 N          58.2168   92.0048    4.4458 N.ar    1  UNL1       -0.2350
     17 C          59.7163   91.9659    4.4383 C.ar    1  UNL1        0.1343
     18 S          60.1558   90.8597    5.3511 S.2     1  UNL1       -0.0652
     19 N          63.3472   85.5656   15.5965 N.am    1  UNL1       -0.2567
     20 C          62.4941   85.6393   16.8281 C.3     1  UNL1        0.1168
     21 C          63.1003   84.4943   14.5761 C.2     1  UNL1        0.3046
     22 O          62.0003   83.4966   14.7872 O.2     1  UNL1       -0.2526
     23 N          63.9534   84.4207   13.3445 N.am    1  UNL1       -0.2824
     24 H          64.6754   85.0755   13.2059 H       1  UNL1        0.1514
     25 C          64.4473   86.5633   15.3853 C.3     1  UNL1        0.1413
     26 C          63.6404   89.7723   13.3563 C.ar    1  UNL1        0.0875
     27 N          63.9468   88.3053   13.4207 N.ar    1  UNL1       -0.2453
     28 C          64.1279   87.9324   14.8622 C.ar    1  UNL1        0.0858
     29 C          63.9335   89.1689   15.6888 C.ar    1  UNL1        0.0530
     30 S          63.6322   90.3060   14.7581 S.2     1  UNL1       -0.0705
     31 C          64.3757   91.6036   11.6664 C.3     1  UNL1        0.0069
     32 C          63.3869   90.5662   12.1091 C.3     1  UNL1        0.0465
     33 C          62.1445   90.3226   11.3045 C.3     1  UNL1        0.0069
     34 C          63.5014   81.9294   12.7620 C.3     1  UNL1        0.0270
     35 C          62.3661   81.1272   12.1984 C.3     1  UNL1        0.0022
     36 C          64.4316   81.3116   13.7636 C.3     1  UNL1        0.0022
@<TRIPOS>BOND
     1    31    32    1
     2    32    33    1
     3    32    26    1
     4    26    27   ar
     5    27    28   ar
     6    28    25    1
     7    25    19    1
     8    19    20    1
     9    19    21   am
    10    21    22    2
    11    21    23   am
    12     1    23    1
    13     1     2    1
    14     2     3    2
    15     2     4   am
    16     4     5    1
    17     5     6    1
    18     6     7    1
    19     7     8   am
    20     8     9    2
    21     8    12    1
    22    12    13    1
    23    13    14    1
    24    14    15   ar
    25    15    16   ar
    26    16    17   ar
    27    17    18   ar
    28     7    10    1
    29    10    11    1
    30     1    34    1
    31    34    35    1
    32    34    36    1
    33    28    29   ar
    34    29    30   ar
    35    30    26   ar
    36    11     4    1
    37    18    14   ar
    38    23    24    1
@<TRIPOS>MOLECULE
*****
 36 38 0 0 0
SMALL
GASTEIGER

@<TRIPOS>ATOM
      1 C          60.8844   86.8386    9.2735 C.3     1  UNL1        0.1499
      2 C          61.1008   88.3206    9.3571 C.2     1  UNL1        0.2436
      3 O          60.4633   89.2297    8.3485 O.2     1  UNL1       -0.2731
      4 N          61.9546   88.8935   10.4493 N.am    1  UNL1       -0.2747
      5 C          62.1709   90.3754   10.5329 C.3     1  UNL1        0.1151
      6 C          63.0247   90.9482   11.6250 C.3     1  UNL1        0.1182
      7 N          63.6622   90.0391   12.6336 N.am    1  UNL1       -0.2425
      8 C          64.5161   90.6120   13.7258 C.2     1  UNL1        0.4053
      9 O          65.1535   89.7029   14.7343 O.2     1  UNL1       -0.2262
     10 C          63.4459   88.5572   12.5500 C.3     1  UNL1        0.1182
     11 C          62.5921   87.9844   11.4578 C.3     1  UNL1        0.1151
     12 O          64.7324   92.0939   13.8094 O.3     1  UNL1       -0.4289
     13 C          66.0769   92.6751   13.4859 C.3     1  UNL1        0.2447
     14 C          66.3094   93.3343   12.1588 C.ar    1  UNL1        0.0714
     15 C          66.1991   94.8026   11.8724 C.ar    1  UNL1        0.1053
     16 N          66.5146   95.0168   10.4217 N.ar    1  UNL1       -0.2350
     17 C          66.8199   93.6809    9.8115 C.ar    1  UNL1        0.1343
     18 S          66.6931   92.6411   10.8851 S.2     1  UNL1       -0.0652
     19 N          63.2173   84.2048   11.1094 N.am    1  UNL1       -0.2567
     20 C          64.4318   83.3723   10.8230 C.3     1  UNL1        0.1168
     21 C          62.6581   85.1055   10.0482 C.2     1  UNL1        0.3046
     22 O          63.3134   85.1736    8.7007 O.2     1  UNL1       -0.2526
     23 N          61.4436   85.9380   10.3347 N.am    1  UNL1       -0.2824
     24 H          61.0136   85.8933   11.2191 H       1  UNL1        0.1514
     25 C          62.5620   84.1367   12.4570 C.3     1  UNL1        0.1413
     26 C          63.3939   86.1772   15.6524 C.ar    1  UNL1        0.0875
     27 N          62.3999   85.5872   14.6964 N.ar    1  UNL1       -0.2453
     28 C          63.1605   84.8712   13.6200 C.ar    1  UNL1        0.0858
     29 C          64.6246   85.0185   13.9107 C.ar    1  UNL1        0.0530
     30 S          64.7689   85.8257   15.1668 S.2     1  UNL1       -0.0705
     31 C          62.7110   86.2800   18.1569 C.3     1  UNL1        0.0069
     32 C          63.0698   86.9779   16.8786 C.3     1  UNL1        0.0465
     33 C          63.1046   88.4767   16.8265 C.3     1  UNL1        0.0069
     34 C          60.1089   86.2573    8.1286 C.3     1  UNL1        0.0270
     35 C          60.7735   85.3050    7.1792 C.3     1  UNL1        0.0022
     36 C          58.6687   86.6282    7.9333 C.3     1  UNL1        0.0022
@<TRIPOS>BOND
     1    31    32    1
     2    32    33    1
     3    32    26    1
     4    26    27   ar
     5    27    28   ar
     6    28    25    1
     7    25    19    1
     8    19    20    1
     9    19    21   am
    10    21    22    2
    11    21    23   am
    12     1    23    1
    13     1     2    1
    14     2     3    2
    15     2     4   am
    16     4     5    1
    17     5     6    1
    18     6     7    1
    19     7     8   am
    20     8     9    2
    21     8    12    1
    22    12    13    1
    23    13    14    1
    24    14    15   ar
    25    15    16   ar
    26    16    17   ar
    27    17    18   ar
    28     7    10    1
    29    10    11    1
    30     1    34    1
    31    34    35    1
    32    34    36    1
    33    28    29   ar
    34    29    30   ar
    35    30    26   ar
    36    11     4    1
    37    18    14   ar
    38    23    24    1
@<TRIPOS>MOLECULE
*****
 36 38 0 0 0
SMALL
GASTEIGER

@<TRIPOS>ATOM
      1 C          62.7242   83.1600   12.7498 C.3     1  UNL1        0.1499
      2 C          63.4831   83.8261   13.8589 C.2     1  UNL1        0.2436
      3 O          64.0599   83.0034   14.9727 O.2     1  UNL1       -0.2731
      4 N          63.6652   85.3151   13.8544 N.am    1  UNL1       -0.2747
      5 C          64.4240   85.9813   14.9635 C.3     1  UNL1        0.1151
      6 C          64.6061   87.4701   14.9589 C.3     1  UNL1        0.1182
      7 N          64.0293   88.2928   13.8452 N.am    1  UNL1       -0.2425
      8 C          64.2114   89.7818   13.8406 C.2     1  UNL1        0.4053
      9 O          63.6346   90.6045   12.7269 O.2     1  UNL1       -0.2262
     10 C          63.2704   87.6267   12.7360 C.3     1  UNL1        0.1182
     11 C          63.0884   86.1378   12.7406 C.3     1  UNL1        0.1151
     12 O          64.9703   90.4480   14.9498 O.3     1  UNL1       -0.4289
     13 C          65.3885   91.8823   14.8164 C.3     1  UNL1        0.2447
     14 C          66.8417   92.2488   14.8795 C.ar    1  UNL1        0.0714
     15 C          67.8445   92.0702   13.7784 C.ar    1  UNL1        0.1053
     16 N          69.1698   92.5692   14.2730 N.ar    1  UNL1       -0.2350
     17 C          68.9860   93.0563   15.6798 C.ar    1  UNL1        0.1343
     18 S          67.5471   92.8582   16.0546 S.2     1  UNL1       -0.0652
     19 N          62.6600   84.9867    9.2271 N.am    1  UNL1       -0.2567
     20 C          63.5571   85.2004    8.0441 C.3     1  UNL1        0.1168
     21 C          63.1407   84.1802   10.3969 C.2     1  UNL1        0.3046
     22 O          64.5185   83.5873   10.3837 O.2     1  UNL1       -0.2526
     23 N          62.2435   83.9665   11.5799 N.am    1  UNL1       -0.2824
     24 H          61.3392   84.3556   11.5886 H       1  UNL1        0.1514
     25 C          61.2822   85.5796    9.2403 C.3     1  UNL1        0.1413
     26 C          60.1336   88.8372   11.0108 C.ar    1  UNL1        0.0875
     27 N          59.9720   87.3730   10.7277 N.ar    1  UNL1       -0.2453
     28 C          61.0646   86.9594    9.7869 C.ar    1  UNL1        0.0858
     29 C          61.9015   88.1680    9.4885 C.ar    1  UNL1        0.0530
     30 S          61.3261   89.3285   10.2450 S.2     1  UNL1       -0.0705
     31 C          58.5462   89.0249   13.0589 C.3     1  UNL1        0.0069
     32 C          59.2567   89.6646   11.9032 C.3     1  UNL1        0.0465
     33 C          59.0902   91.1319   11.6397 C.3     1  UNL1        0.0069
     34 C          62.4460   81.6872   12.8104 C.3     1  UNL1        0.0270
     35 C          61.5356   81.1388   13.8688 C.3     1  UNL1        0.0022
     36 C          63.0782   80.7628   11.8124 C.3     1  UNL1        0.0022
@<TRIPOS>BOND
     1    31    32    1
     2    32    33    1
     3    32    26    1
     4    26    27   ar
     5    27    28   ar
     6    28    25    1
     7    25    19    1
     8    19    20    1
     9    19    21   am
    10    21    22    2
    11    21    23   am
    12     1    23    1
    13     1     2    1
    14     2     3    2
    15     2     4   am
    16     4     5    1
    17     5     6    1
    18     6     7    1
    19     7     8   am
    20     8     9    2
    21     8    12    1
    22    12    13    1
    23    13    14    1
    24    14    15   ar
    25    15    16   ar
    26    16    17   ar
    27    17    18   ar
    28     7    10    1
    29    10    11    1
    30     1    34    1
    31    34    35    1
    32    34    36    1
    33    28    29   ar
    34    29    30   ar
    35    30    26   ar
    36    11     4    1
    37    18    14   ar
    38    23    24    1
@<TRIPOS>MOLECULE
*****
 36 38 0 0 0
SMALL
GASTEIGER

@<TRIPOS>ATOM
      1 C          60.9329   88.7366   11.3670 C.3     1  UNL1        0.1499
      2 C          61.7801   89.6587   10.5413 C.2     1  UNL1        0.2436
      3 O          61.5513   89.7649    9.0626 O.2     1  UNL1       -0.2731
      4 N          62.8562   90.4747   11.1942 N.am    1  UNL1       -0.2747
      5 C          63.7034   91.3969   10.3684 C.3     1  UNL1        0.1151
      6 C          64.7794   92.2128   11.0213 C.3     1  UNL1        0.1182
      7 N          65.0082   92.1067   12.5000 N.am    1  UNL1       -0.2425
      8 C          66.0843   92.9227   13.1529 C.2     1  UNL1        0.4053
      9 O          66.3131   92.8166   14.6315 O.2     1  UNL1       -0.2262
     10 C          64.1610   91.1846   13.3257 C.3     1  UNL1        0.1182
     11 C          63.0850   90.3686   12.6728 C.3     1  UNL1        0.1151
     12 O          66.9315   93.8448   12.3272 O.3     1  UNL1       -0.4289
     13 C          66.3567   95.1306   11.8107 C.3     1  UNL1        0.2447
     14 C          66.4935   95.4838   10.3594 C.ar    1  UNL1        0.0714
     15 C          67.3550   94.7748    9.3568 C.ar    1  UNL1        0.1053
     16 N          67.1867   95.4608    8.0336 N.ar    1  UNL1       -0.2350
     17 C          66.2212   96.5938    8.2183 C.ar    1  UNL1        0.1343
     18 S          65.7928   96.6080    9.6557 S.2     1  UNL1       -0.0652
     19 N          62.5861   85.1668   10.8438 N.am    1  UNL1       -0.2567
     20 C          63.3182   84.4009    9.7821 C.3     1  UNL1        0.1168
     21 C          62.1256   86.5687   10.5745 C.2     1  UNL1        0.3046
     22 O          62.3973   87.2048    9.2435 O.2     1  UNL1       -0.2526
     23 N          61.3934   87.3347   11.6363 N.am    1  UNL1       -0.2824
     24 H          61.2150   86.9172   12.5099 H       1  UNL1        0.1514
     25 C          62.3143   84.5308   12.1749 C.3     1  UNL1        0.1413
     26 C          63.3573   86.2100   15.5153 C.ar    1  UNL1        0.0875
     27 N          62.3284   85.9060   14.4670 N.ar    1  UNL1       -0.2453
     28 C          62.9784   85.0632   13.4100 C.ar    1  UNL1        0.0858
     29 C          64.4090   84.8463   13.8051 C.ar    1  UNL1        0.0530
     30 S          64.6432   85.5550   15.1062 S.2     1  UNL1       -0.0705
     31 C          63.2772   88.5184   16.7046 C.3     1  UNL1        0.0069
     32 C          63.1386   87.0257   16.7549 C.3     1  UNL1        0.0465
     33 C          62.7814   86.3487   18.0449 C.3     1  UNL1        0.0069
     34 C          59.6251   89.2164   11.9235 C.3     1  UNL1        0.0270
     35 C          58.8288   88.3319   12.8365 C.3     1  UNL1        0.0022
     36 C          59.1137   90.5807   11.5670 C.3     1  UNL1        0.0022
@<TRIPOS>BOND
     1    31    32    1
     2    32    33    1
     3    32    26    1
     4    26    27   ar
     5    27    28   ar
     6    28    25    1
     7    25    19    1
     8    19    20    1
     9    19    21   am
    10    21    22    2
    11    21    23   am
    12     1    23    1
    13     1     2    1
    14     2     3    2
    15     2     4   am
    16     4     5    1
    17     5     6    1
    18     6     7    1
    19     7     8   am
    20     8     9    2
    21     8    12    1
    22    12    13    1
    23    13    14    1
    24    14    15   ar
    25    15    16   ar
    26    16    17   ar
    27    17    18   ar
    28     7    10    1
    29    10    11    1
    30     1    34    1
    31    34    35    1
    32    34    36    1
    33    28    29   ar
    34    29    30   ar
    35    30    26   ar
    36    11     4    1
    37    18    14   ar
    38    23    24    1
@<TRIPOS>MOLECULE
*****
 36 38 0 0 0
SMALL
GASTEIGER

@<TRIPOS>ATOM
      1 C          61.3871   88.6100   10.9226 C.3     1  UNL1        0.1499
      2 C          62.1135   89.7441   10.2622 C.2     1  UNL1        0.2436
      3 O          61.8024   90.1076    8.8406 O.2     1  UNL1       -0.2731
      4 N          63.1512   90.5148   11.0235 N.am    1  UNL1       -0.2747
      5 C          63.8776   91.6489   10.3631 C.3     1  UNL1        0.1151
      6 C          64.9151   92.4195   11.1244 C.3     1  UNL1        0.1182
      7 N          65.2263   92.0560   12.5460 N.am    1  UNL1       -0.2425
      8 C          66.2639   92.8267   13.3073 C.2     1  UNL1        0.4053
      9 O          66.5751   92.4632   14.7289 O.2     1  UNL1       -0.2262
     10 C          64.4999   90.9219   13.2064 C.3     1  UNL1        0.1182
     11 C          63.4623   90.1513   12.4451 C.3     1  UNL1        0.1151
     12 O          66.9903   93.9608   12.6469 O.3     1  UNL1       -0.4289
     13 C          66.2179   95.0452   11.9558 C.3     1  UNL1        0.2447
     14 C          66.6309   95.5061   10.5895 C.ar    1  UNL1        0.0714
     15 C          67.4831   94.7408    9.6210 C.ar    1  UNL1        0.1053
     16 N          67.6431   95.5749    8.3847 N.ar    1  UNL1       -0.2350
     17 C          66.8897   96.8559    8.5891 C.ar    1  UNL1        0.1343
     18 S          66.2642   96.8133    9.9517 S.2     1  UNL1       -0.0652
     19 N          63.1535   85.0614   10.7290 N.am    1  UNL1       -0.2567
     20 C          63.4229   83.9823    9.7226 C.3     1  UNL1        0.1168
     21 C          62.4050   86.2961   10.3226 C.2     1  UNL1        0.3046
     22 O          61.9260   86.4518    8.9097 O.2     1  UNL1       -0.2526
     23 N          62.1356   87.3753   11.3291 N.am    1  UNL1       -0.2824
     24 H          62.4500   87.2731   12.2564 H       1  UNL1        0.1514
     25 C          63.6326   84.9058   12.1420 C.3     1  UNL1        0.1413
     26 C          61.9219   81.8657   13.8440 C.ar    1  UNL1        0.0875
     27 N          62.4722   82.5470   12.6262 N.ar    1  UNL1       -0.2453
     28 C          62.9947   83.8900   13.0426 C.ar    1  UNL1        0.0858
     29 C          62.7672   84.0387   14.5178 C.ar    1  UNL1        0.0530
     30 S          62.1042   82.7876   15.0131 S.2     1  UNL1       -0.0705
     31 C          62.1192   79.2919   13.5500 C.3     1  UNL1        0.0069
     32 C          61.2987   80.5019   13.8854 C.3     1  UNL1        0.0465
     33 C          59.8549   80.3482   14.2623 C.3     1  UNL1        0.0069
     34 C          59.9121   88.7106   11.1765 C.3     1  UNL1        0.0270
     35 C          58.9447   88.0218   10.2603 C.3     1  UNL1        0.0022
     36 C          59.4047   89.5001   12.3467 C.3     1  UNL1        0.0022
@<TRIPOS>BOND
     1    31    32    1
     2    32    33    1
     3    32    26    1
     4    26    27   ar
     5    27    28   ar
     6    28    25    1
     7    25    19    1
     8    19    20    1
     9    19    21   am
    10    21    22    2
    11    21    23   am
    12     1    23    1
    13     1     2    1
    14     2     3    2
    15     2     4   am
    16     4     5    1
    17     5     6    1
    18     6     7    1
    19     7     8   am
    20     8     9    2
    21     8    12    1
    22    12    13    1
    23    13    14    1
    24    14    15   ar
    25    15    16   ar
    26    16    17   ar
    27    17    18   ar
    28     7    10    1
    29    10    11    1
    30     1    34    1
    31    34    35    1
    32    34    36    1
    33    28    29   ar
    34    29    30   ar
    35    30    26   ar
    36    11     4    1
    37    18    14   ar
    38    23    24    1
@<TRIPOS>MOLECULE
*****
 36 38 0 0 0
SMALL
GASTEIGER

@<TRIPOS>ATOM
      1 C          60.6148   87.3376   10.3088 C.3     1  UNL1        0.1499
      2 C          60.6226   88.4719   11.2902 C.2     1  UNL1        0.2436
      3 O          59.5029   88.6170   12.2777 O.2     1  UNL1       -0.2731
      4 N          61.7502   89.4612   11.2842 N.am    1  UNL1       -0.2747
      5 C          61.7580   90.5954   12.2657 C.3     1  UNL1        0.1151
      6 C          62.8856   91.5846   12.2597 C.3     1  UNL1        0.1182
      7 N          64.0053   91.4396   11.2722 N.am    1  UNL1       -0.2425
      8 C          65.1329   92.4288   11.2662 C.2     1  UNL1        0.4053
      9 O          66.2526   92.2838   10.2787 O.2     1  UNL1       -0.2262
     10 C          63.9975   90.3053   10.2907 C.3     1  UNL1        0.1182
     11 C          62.8700   89.3161   10.2967 C.3     1  UNL1        0.1151
     12 O          65.1407   93.5631   12.2476 O.3     1  UNL1       -0.4289
     13 C          66.4220   93.9705   12.9129 C.3     1  UNL1        0.2447
     14 C          66.9930   93.1320   14.0177 C.ar    1  UNL1        0.0714
     15 C          67.0360   91.6331   14.0549 C.ar    1  UNL1        0.1053
     16 N          67.6908   91.2198   15.3395 N.ar    1  UNL1       -0.2350
     17 C          68.0526   92.4634   16.0964 C.ar    1  UNL1        0.1343
     18 S          67.6213   93.6451   15.2795 S.2     1  UNL1       -0.0652
     19 N          62.9712   84.1443   10.2893 N.am    1  UNL1       -0.2567
     20 C          64.1328   83.5970    9.5139 C.3     1  UNL1        0.1168
     21 C          62.3738   85.4673    9.9113 C.2     1  UNL1        0.3046
     22 O          62.9379   86.2429    8.7580 O.2     1  UNL1       -0.2526
     23 N          61.2122   86.0146   10.6867 N.am    1  UNL1       -0.2824
     24 H          60.8420   85.5056   11.4437 H       1  UNL1        0.1514
     25 C          62.4070   83.3687   11.4426 C.3     1  UNL1        0.1413
     26 C          63.3397   85.0460   14.8164 C.ar    1  UNL1        0.0875
     27 N          62.9991   85.1363   13.3584 N.ar    1  UNL1       -0.2453
     28 C          62.7709   83.7442   12.8485 C.ar    1  UNL1        0.0858
     29 C          62.9706   82.7935   13.9915 C.ar    1  UNL1        0.0530
     30 S          63.3222   83.5980   15.2077 S.2     1  UNL1       -0.0705
     31 C          64.3923   87.3903   15.1986 C.3     1  UNL1        0.0069
     32 C          63.6445   86.2008   15.7238 C.3     1  UNL1        0.0465
     33 C          63.2014   86.1662   17.1565 C.3     1  UNL1        0.0069
     34 C          60.0096   87.5263    8.9493 C.3     1  UNL1        0.0270
     35 C          59.8268   88.9080    8.3949 C.3     1  UNL1        0.0022
     36 C          59.5872   86.3332    8.1442 C.3     1  UNL1        0.0022
@<TRIPOS>BOND
     1    31    32    1
     2    32    33    1
     3    32    26    1
     4    26    27   ar
     5    27    28   ar
     6    28    25    1
     7    25    19    1
     8    19    20    1
     9    19    21   am
    10    21    22    2
    11    21    23   am
    12     1    23    1
    13     1     2    1
    14     2     3    2
    15     2     4   am
    16     4     5    1
    17     5     6    1
    18     6     7    1
    19     7     8   am
    20     8     9    2
    21     8    12    1
    22    12    13    1
    23    13    14    1
    24    14    15   ar
    25    15    16   ar
    26    16    17   ar
    27    17    18   ar
    28     7    10    1
    29    10    11    1
    30     1    34    1
    31    34    35    1
    32    34    36    1
    33    28    29   ar
    34    29    30   ar
    35    30    26   ar
    36    11     4    1
    37    18    14   ar
    38    23    24    1
@<TRIPOS>MOLECULE
*****
 36 38 0 0 0
SMALL
GASTEIGER

@<TRIPOS>ATOM
      1 C          63.4056   94.7241   -0.0237 C.3     1  UNL1        0.1499
      2 C          63.7876   93.6079    0.9026 C.2     1  UNL1        0.2436
      3 O          65.1844   93.0615    0.8826 O.2     1  UNL1       -0.2731
      4 N          62.7727   93.0380    1.8489 N.am    1  UNL1       -0.2747
      5 C          63.1547   91.9218    2.7751 C.3     1  UNL1        0.1151
      6 C          62.1399   91.3519    3.7214 C.3     1  UNL1        0.1182
      7 N          60.7431   91.8983    3.7413 N.am    1  UNL1       -0.2425
      8 C          59.7282   91.3284    4.6876 C.2     1  UNL1        0.4053
      9 O          58.3314   91.8749    4.7075 O.2     1  UNL1       -0.2262
     10 C          60.3611   93.0146    2.8150 C.3     1  UNL1        0.1182
     11 C          61.3759   93.5844    1.8688 C.3     1  UNL1        0.1151
     12 O          60.1102   90.2122    5.6139 O.3     1  UNL1       -0.4289
     13 C          59.1052   89.6656    6.5841 C.3     1  UNL1        0.2447
     14 C          59.5457   88.7376    7.6771 C.ar    1  UNL1        0.0714
     15 C          60.2184   89.1386    8.9564 C.ar    1  UNL1        0.1053
     16 N          60.4794   87.8945    9.7527 N.ar    1  UNL1       -0.2350
     17 C          59.9680   86.7245    8.9655 C.ar    1  UNL1        0.1343
     18 S          59.3910   87.2456    7.6828 S.2     1  UNL1       -0.0652
     19 N          63.9032   94.7818   -3.9606 N.am    1  UNL1       -0.2567
     20 C          64.8217   95.3898   -4.9787 C.3     1  UNL1        0.1168
     21 C          64.1137   95.0570   -2.5012 C.2     1  UNL1        0.3046
     22 O          65.2428   95.9403   -2.0598 O.2     1  UNL1       -0.2526
     23 N          63.1951   94.4489   -1.4831 N.am    1  UNL1       -0.2824
     24 H          62.4540   93.8691   -1.7728 H       1  UNL1        0.1514
     25 C          62.7740   93.8984   -4.4020 C.3     1  UNL1        0.1413
     26 C          59.2918   94.1699   -2.7089 C.ar    1  UNL1        0.0875
     27 N          60.6729   93.5887   -2.7788 N.ar    1  UNL1       -0.2453
     28 C          61.3720   94.1956   -3.9590 C.ar    1  UNL1        0.0858
     29 C          60.4231   95.1519   -4.6184 C.ar    1  UNL1        0.0530
     30 S          59.1374   95.1361   -3.8458 S.2     1  UNL1       -0.0705
     31 C          58.5458   92.8445   -0.6026 C.3     1  UNL1        0.0069
     32 C          58.2484   93.8424   -1.6822 C.3     1  UNL1        0.0465
     33 C          56.9076   94.5129   -1.7352 C.3     1  UNL1        0.0069
     34 C          63.2342   96.1157    0.5094 C.3     1  UNL1        0.0270
     35 C          61.9507   96.8558    0.2751 C.3     1  UNL1        0.0022
     36 C          64.3462   96.7672    1.2769 C.3     1  UNL1        0.0022
@<TRIPOS>BOND
     1    31    32    1
     2    32    33    1
     3    32    26    1
     4    26    27   ar
     5    27    28   ar
     6    28    25    1
     7    25    19    1
     8    19    20    1
     9    19    21   am
    10    21    22    2
    11    21    23   am
    12     1    23    1
    13     1     2    1
    14     2     3    2
    15     2     4   am
    16     4     5    1
    17     5     6    1
    18     6     7    1
    19     7     8   am
    20     8     9    2
    21     8    12    1
    22    12    13    1
    23    13    14    1
    24    14    15   ar
    25    15    16   ar
    26    16    17   ar
    27    17    18   ar
    28     7    10    1
    29    10    11    1
    30     1    34    1
    31    34    35    1
    32    34    36    1
    33    28    29   ar
    34    29    30   ar
    35    30    26   ar
    36    11     4    1
    37    18    14   ar
    38    23    24    1
@<TRIPOS>MOLECULE
*****
 36 38 0 0 0
SMALL
GASTEIGER

@<TRIPOS>ATOM
      1 C          63.8286   86.0056   13.5392 C.3     1  UNL1        0.1499
      2 C          63.0502   85.4333   12.3919 C.2     1  UNL1        0.2436
      3 O          63.0748   83.9563   12.1314 O.2     1  UNL1       -0.2731
      4 N          62.2471   86.3381   11.5049 N.am    1  UNL1       -0.2747
      5 C          61.4687   85.7657   10.3575 C.3     1  UNL1        0.1151
      6 C          60.6657   86.6704    9.4706 C.3     1  UNL1        0.1182
      7 N          60.6411   88.1474    9.7311 N.am    1  UNL1       -0.2425
      8 C          59.8380   89.0522    8.8441 C.2     1  UNL1        0.4053
      9 O          59.8134   90.5292    9.1046 O.2     1  UNL1       -0.2262
     10 C          61.4195   88.7198   10.8785 C.3     1  UNL1        0.1182
     11 C          62.2225   87.8151   11.7654 C.3     1  UNL1        0.1151
     12 O          59.0596   88.4798    7.6968 O.3     1  UNL1       -0.4289
     13 C          59.4624   88.7937    6.2863 C.3     1  UNL1        0.2447
     14 C          59.1013   90.1174    5.6801 C.ar    1  UNL1        0.0714
     15 C          57.7176   90.6837    5.5593 C.ar    1  UNL1        0.1053
     16 N          57.8216   92.0234    4.8928 N.ar    1  UNL1       -0.2350
     17 C          59.2696   92.2852    4.6017 C.ar    1  UNL1        0.1343
     18 S          60.0605   91.1072    5.0882 S.2     1  UNL1       -0.0652
     19 N          63.6640   89.5411   15.3346 N.am    1  UNL1       -0.2567
     20 C          63.4221   90.1083   16.7020 C.3     1  UNL1        0.1168
     21 C          63.6253   88.0570   15.1207 C.2     1  UNL1        0.3046
     22 O          63.3448   87.1400   16.2741 O.2     1  UNL1       -0.2526
     23 N          63.8673   87.4898   13.7532 N.am    1  UNL1       -0.2824
     24 H          64.0514   88.0917   12.9962 H       1  UNL1        0.1514
     25 C          63.9446   90.4581   14.1811 C.3     1  UNL1        0.1413
     26 C          67.1646   92.4869   14.9436 C.ar    1  UNL1        0.0875
     27 N          66.1144   91.4951   15.3480 N.ar    1  UNL1       -0.2453
     28 C          65.1510   91.3492   14.2076 C.ar    1  UNL1        0.0858
     29 C          65.6057   92.2508   13.0985 C.ar    1  UNL1        0.0530
     30 S          66.8502   92.9539   13.5533 S.2     1  UNL1       -0.0705
     31 C          69.0841   91.9345   16.6050 C.3     1  UNL1        0.0069
     32 C          68.3254   92.9332   15.7823 C.3     1  UNL1        0.0465
     33 C          68.7274   94.3782   15.7982 C.3     1  UNL1        0.0069
     34 C          64.5684   85.0938   14.4727 C.3     1  UNL1        0.0270
     35 C          63.8218   84.0519   15.2518 C.3     1  UNL1        0.0022
     36 C          66.0548   85.2239   14.6270 C.3     1  UNL1        0.0022
@<TRIPOS>BOND
     1    31    32    1
     2    32    33    1
     3    32    26    1
     4    26    27   ar
     5    27    28   ar
     6    28    25    1
     7    25    19    1
     8    19    20    1
     9    19    21   am
    10    21    22    2
    11    21    23   am
    12     1    23    1
    13     1     2    1
    14     2     3    2
    15     2     4   am
    16     4     5    1
    17     5     6    1
    18     6     7    1
    19     7     8   am
    20     8     9    2
    21     8    12    1
    22    12    13    1
    23    13    14    1
    24    14    15   ar
    25    15    16   ar
    26    16    17   ar
    27    17    18   ar
    28     7    10    1
    29    10    11    1
    30     1    34    1
    31    34    35    1
    32    34    36    1
    33    28    29   ar
    34    29    30   ar
    35    30    26   ar
    36    11     4    1
    37    18    14   ar
    38    23    24    1
@<TRIPOS>MOLECULE
*****
 36 38 0 0 0
SMALL
GASTEIGER

@<TRIPOS>ATOM
      1 C          63.5009   94.8398    0.4750 C.3     1  UNL1        0.1499
      2 C          63.7230   93.5691    1.2404 C.2     1  UNL1        0.2436
      3 O          65.0311   92.8439    1.1268 O.2     1  UNL1       -0.2731
      4 N          62.6368   93.0235    2.1195 N.am    1  UNL1       -0.2747
      5 C          62.8589   91.7528    2.8850 C.3     1  UNL1        0.1151
      6 C          61.7728   91.2073    3.7640 C.3     1  UNL1        0.1182
      7 N          60.4647   91.9325    3.8776 N.am    1  UNL1       -0.2425
      8 C          59.3785   91.3869    4.7567 C.2     1  UNL1        0.4053
      9 O          58.0704   92.1121    4.8703 O.2     1  UNL1       -0.2262
     10 C          60.2426   93.2032    3.1122 C.3     1  UNL1        0.1182
     11 C          61.3287   93.7487    2.2332 C.3     1  UNL1        0.1151
     12 O          59.6006   90.1161    5.5222 O.3     1  UNL1       -0.4289
     13 C          59.2936   90.0610    6.9894 C.3     1  UNL1        0.2447
     14 C          59.6021   88.8204    7.7741 C.ar    1  UNL1        0.0714
     15 C          59.2381   87.4181    7.3855 C.ar    1  UNL1        0.1053
     16 N          59.7399   86.4953    8.4564 N.ar    1  UNL1       -0.2350
     17 C          60.4141   87.3274    9.5068 C.ar    1  UNL1        0.1343
     18 S          60.3289   88.7643    9.0851 S.2     1  UNL1       -0.0652
     19 N          61.3370   94.5936   -2.8427 N.am    1  UNL1       -0.2567
     20 C          61.4838   94.1251   -4.2600 C.3     1  UNL1        0.1168
     21 C          62.4924   94.4825   -1.8925 C.2     1  UNL1        0.3046
     22 O          63.7946   93.9029   -2.3598 O.2     1  UNL1       -0.2526
     23 N          62.3455   94.9510   -0.4751 N.am    1  UNL1       -0.2824
     24 H          61.4909   95.3314   -0.1685 H       1  UNL1        0.1514
     25 C          60.0348   95.1732   -2.3754 C.3     1  UNL1        0.1413
     26 C          57.0932   92.7016   -2.9266 C.ar    1  UNL1        0.0875
     27 N          58.3738   93.3364   -3.3816 N.ar    1  UNL1       -0.2453
     28 C          58.8053   94.3152   -2.3300 C.ar    1  UNL1        0.0858
     29 C          57.7913   94.2852   -1.2251 C.ar    1  UNL1        0.0530
     30 S          56.7332   93.2880   -1.5938 S.2     1  UNL1       -0.0705
     31 C          56.1166   91.7910   -5.1553 C.3     1  UNL1        0.0069
     32 C          56.3102   91.6627   -3.6734 C.3     1  UNL1        0.0465
     33 C          55.7207   90.4957   -2.9382 C.3     1  UNL1        0.0069
     34 C          64.4343   95.9995    0.6597 C.3     1  UNL1        0.0270
     35 C          64.3926   96.8014    1.9266 C.3     1  UNL1        0.0022
     36 C          65.4093   96.3572   -0.4226 C.3     1  UNL1        0.0022
@<TRIPOS>BOND
     1    31    32    1
     2    32    33    1
     3    32    26    1
     4    26    27   ar
     5    27    28   ar
     6    28    25    1
     7    25    19    1
     8    19    20    1
     9    19    21   am
    10    21    22    2
    11    21    23   am
    12     1    23    1
    13     1     2    1
    14     2     3    2
    15     2     4   am
    16     4     5    1
    17     5     6    1
    18     6     7    1
    19     7     8   am
    20     8     9    2
    21     8    12    1
    22    12    13    1
    23    13    14    1
    24    14    15   ar
    25    15    16   ar
    26    16    17   ar
    27    17    18   ar
    28     7    10    1
    29    10    11    1
    30     1    34    1
    31    34    35    1
    32    34    36    1
    33    28    29   ar
    34    29    30   ar
    35    30    26   ar
    36    11     4    1
    37    18    14   ar
    38    23    24    1
