@<TRIPOS>MOLECULE
*****
 37 40 0 0 0
SMALL
GASTEIGER

@<TRIPOS>ATOM
      1 N          63.3733   85.9407   13.8637 N.am    1  UNL1       -0.2463
      2 C          63.3344   85.2535   15.1965 C.2     1  UNL1        0.2869
      3 O          63.6876   85.8706   16.5172 O.2     1  UNL1       -0.2662
      4 C          62.8802   83.8409   14.9766 C.2     1  UNL1        0.1887
      5 O          62.6996   82.7974   16.0389 O.2     1  UNL1       -0.5020
      6 C          62.6384   83.6551   13.5079 C.2     1  UNL1        0.0732
      7 C          62.9431   84.9528   12.8201 C.3     1  UNL1        0.1338
      8 H          62.8759   83.0059   16.9352 H       1  UNL1        0.2924
      9 C          64.5701   90.2154   13.1257 C.ar    1  UNL1        0.0392
     10 C          64.9872   89.5277   14.3918 C.ar    1  UNL1        0.0044
     11 C          64.5882   88.1028   14.6378 C.ar    1  UNL1        0.0150
     12 C          63.7722   87.3657   13.6177 C.ar    1  UNL1        0.0548
     13 C          63.3552   88.0534   12.3516 C.ar    1  UNL1        0.0150
     14 C          63.7541   89.4782   12.1056 C.ar    1  UNL1        0.0044
     15 C          65.7233   94.7597   10.6967 C.3     1  UNL1        0.0978
     16 C          65.4991   93.7291   11.7632 C.ar    1  UNL1        0.2371
     17 N          65.0679   92.3097   11.5410 N.ar    1  UNL1       -0.1907
     18 C          64.9691   91.6403   12.8797 C.ar    1  UNL1        0.2033
     19 N          65.3393   92.6460   13.9293 N.ar    1  UNL1       -0.0560
     20 O          65.6669   93.9369   13.2393 O.2     1  UNL1       -0.3370
     21 C          62.8364   85.2164   11.3473 C.ar    1  UNL1        0.0344
     22 C          63.7629   84.5238   10.3924 C.ar    1  UNL1        0.0007
     23 C          63.6562   84.7873    8.9196 C.ar    1  UNL1       -0.0001
     24 C          62.6230   85.7435    8.4017 C.ar    1  UNL1        0.0031
     25 C          61.6965   86.4361    9.3567 C.ar    1  UNL1        0.0366
     26 C          61.8031   86.1725   10.8295 C.ar    1  UNL1        0.1365
     27 O          60.8767   86.8651   11.7843 O.3     1  UNL1       -0.4730
     28 C          59.8890   87.8722   11.2739 C.3     1  UNL1        0.2370
     29 C          60.2149   89.3353   11.3261 C.3     1  UNL1        0.1847
     30 O          60.2134   89.7077   12.7792 O.3     1  UNL1       -0.3784
     31 H          59.3453   89.5079   13.1632 H       1  UNL1        0.2106
     32 C          62.1735   82.3931   12.8436 C.2     1  UNL1        0.1732
     33 O          61.4759   82.4567   11.5173 O.2     1  UNL1       -0.2915
     34 C          62.4062   81.0674   13.5058 C.3     1  UNL1        0.0554
     35 C          63.8516   81.1228   13.1086 C.3     1  UNL1        0.0077
     36 C          60.9609   81.0120   13.9029 C.3     1  UNL1        0.0077
     37 C          62.6390   79.7418   14.1679 C.3     1  UNL1        0.0077
@<TRIPOS>BOND
     1    15    16    1
     2    16    17   ar
     3    17    18   ar
     4    18     9    1
     5     9    10   ar
     6    10    11   ar
     7    11    12   ar
     8    12     1    1
     9     1     2   am
    10     2     3    2
    11     2     4    1
    12     4     5    1
    13     4     6    2
    14     6    32    1
    15    32    33    2
    16    32    34    1
    17    34    35    1
    18    34    36    1
    19    34    37    1
    20     6     7    1
    21     7    21    1
    22    21    22   ar
    23    22    23   ar
    24    23    24   ar
    25    24    25   ar
    26    25    26   ar
    27    26    27    1
    28    27    28    1
    29    28    29    1
    30    29    30    1
    31    12    13   ar
    32    13    14   ar
    33    18    19   ar
    34    19    20   ar
    35    20    16   ar
    36    14     9   ar
    37     7     1    1
    38    26    21   ar
    39     5     8    1
    40    30    31    1
@<TRIPOS>MOLECULE
*****
 37 40 0 0 0
SMALL
GASTEIGER

@<TRIPOS>ATOM
      1 N          63.4217   86.8239   12.9180 N.am    1  UNL1       -0.2463
      2 C          64.2448   87.4979   13.9754 C.2     1  UNL1        0.2869
      3 O          65.0414   86.8102   15.0444 O.2     1  UNL1       -0.2662
      4 C          64.1316   88.9803   13.7763 C.2     1  UNL1        0.1887
      5 O          64.7949   90.0352   14.6111 O.2     1  UNL1       -0.5020
      6 C          63.2384   89.2224   12.5957 C.2     1  UNL1        0.0732
      7 C          62.7997   87.8897   12.0653 C.3     1  UNL1        0.1338
      8 H          65.3386   89.7882   15.3332 H       1  UNL1        0.2924
      9 C          62.9086   82.3839   12.3954 C.ar    1  UNL1        0.0392
     10 C          62.5478   83.0323   13.6990 C.ar    1  UNL1        0.0044
     11 C          62.7189   84.5122   13.8732 C.ar    1  UNL1        0.0150
     12 C          63.2506   85.3438   12.7438 C.ar    1  UNL1        0.0548
     13 C          63.6114   84.6954   11.4402 C.ar    1  UNL1        0.0150
     14 C          63.4403   83.2154   11.2660 C.ar    1  UNL1        0.0044
     15 C          62.8156   77.5564   10.2581 C.3     1  UNL1        0.0978
     16 C          62.6948   78.6849   11.2388 C.ar    1  UNL1        0.2371
     17 N          62.9937   80.1287   10.9629 N.ar    1  UNL1       -0.1907
     18 C          62.7375   80.9038   12.2213 C.ar    1  UNL1        0.2033
     19 N          62.2802   79.9391   13.2749 N.ar    1  UNL1       -0.0560
     20 O          62.2538   78.5677   12.6678 O.2     1  UNL1       -0.3370
     21 C          61.8975   87.6627   10.8887 C.ar    1  UNL1        0.0344
     22 C          62.4451   87.0609    9.6286 C.ar    1  UNL1        0.0007
     23 C          61.5428   86.8340    8.4520 C.ar    1  UNL1       -0.0001
     24 C          60.0928   87.2088    8.5355 C.ar    1  UNL1        0.0031
     25 C          59.5451   87.8105    9.7957 C.ar    1  UNL1        0.0366
     26 C          60.4474   88.0375   10.9723 C.ar    1  UNL1        0.1365
     27 O          59.8997   88.6393   12.2323 O.3     1  UNL1       -0.4730
     28 C          58.4394   88.9670   12.3339 C.3     1  UNL1        0.2370
     29 C          57.6621   88.5591   13.5501 C.3     1  UNL1        0.1847
     30 O          56.2614   88.3025   13.0786 O.3     1  UNL1       -0.3784
     31 H          55.9072   89.1053   12.6650 H       1  UNL1        0.2106
     32 C          62.8518   90.5621   12.0427 C.2     1  UNL1        0.1732
     33 O          61.4569   91.0789   12.2353 O.2     1  UNL1       -0.2915
     34 C          63.8602   91.3851   11.2971 C.3     1  UNL1        0.0554
     35 C          64.4651   91.8226   12.5982 C.3     1  UNL1        0.0077
     36 C          63.2554   90.9475    9.9961 C.3     1  UNL1        0.0077
     37 C          64.8686   92.2080   10.5516 C.3     1  UNL1        0.0077
@<TRIPOS>BOND
     1    15    16    1
     2    16    17   ar
     3    17    18   ar
     4    18     9    1
     5     9    10   ar
     6    10    11   ar
     7    11    12   ar
     8    12     1    1
     9     1     2   am
    10     2     3    2
    11     2     4    1
    12     4     5    1
    13     4     6    2
    14     6    32    1
    15    32    33    2
    16    32    34    1
    17    34    35    1
    18    34    36    1
    19    34    37    1
    20     6     7    1
    21     7    21    1
    22    21    22   ar
    23    22    23   ar
    24    23    24   ar
    25    24    25   ar
    26    25    26   ar
    27    26    27    1
    28    27    28    1
    29    28    29    1
    30    29    30    1
    31    12    13   ar
    32    13    14   ar
    33    18    19   ar
    34    19    20   ar
    35    20    16   ar
    36    14     9   ar
    37     7     1    1
    38    26    21   ar
    39     5     8    1
    40    30    31    1
@<TRIPOS>MOLECULE
*****
 37 40 0 0 0
SMALL
GASTEIGER

@<TRIPOS>ATOM
      1 N          61.3343   94.5223   -2.6626 N.am    1  UNL1       -0.2463
      2 C          62.3370   94.1033   -3.6966 C.2     1  UNL1        0.2869
      3 O          62.0580   93.8709   -5.1519 O.2     1  UNL1       -0.2662
      4 C          63.6676   93.9574   -3.0197 C.2     1  UNL1        0.1887
      5 O          64.9528   93.5536   -3.6793 O.2     1  UNL1       -0.5020
      6 C          63.4872   94.2864   -1.5673 C.2     1  UNL1        0.0732
      7 C          62.0452   94.6355   -1.3466 C.3     1  UNL1        0.1338
      8 H          64.9696   93.3662   -4.5972 H       1  UNL1        0.2924
      9 C          56.9614   95.3031   -3.3823 C.ar    1  UNL1        0.0392
     10 C          57.5813   94.0201   -3.8510 C.ar    1  UNL1        0.0044
     11 C          59.0389   93.7599   -3.6112 C.ar    1  UNL1        0.0150
     12 C          59.8766   94.7826   -2.9025 C.ar    1  UNL1        0.0548
     13 C          59.2567   96.0655   -2.4337 C.ar    1  UNL1        0.0150
     14 C          57.7991   96.3258   -2.6736 C.ar    1  UNL1        0.0044
     15 C          51.7901   96.0161   -2.5878 C.3     1  UNL1        0.0978
     16 C          53.1268   95.8910   -3.2570 C.ar    1  UNL1        0.2371
     17 N          54.4303   95.5986   -2.5750 N.ar    1  UNL1       -0.1907
     18 C          55.5037   95.5633   -3.6222 C.ar    1  UNL1        0.2033
     19 N          54.8635   95.8338   -4.9515 N.ar    1  UNL1       -0.0560
     20 O          53.3945   96.0364   -4.7258 O.2     1  UNL1       -0.3370
     21 C          61.4234   95.0287   -0.0395 C.ar    1  UNL1        0.0344
     22 C          61.4445   96.4627    0.3999 C.ar    1  UNL1        0.0007
     23 C          60.8226   96.8560    1.7071 C.ar    1  UNL1       -0.0001
     24 C          60.1796   95.8151    2.5749 C.ar    1  UNL1        0.0031
     25 C          60.1584   94.3810    2.1355 C.ar    1  UNL1        0.0366
     26 C          60.7803   93.9878    0.8283 C.ar    1  UNL1        0.1365
     27 O          60.7591   92.5538    0.3890 O.3     1  UNL1       -0.4730
     28 C          59.5533   92.0018   -0.3120 C.3     1  UNL1        0.2370
     29 C          58.2748   92.7858   -0.3351 C.3     1  UNL1        0.1847
     30 O          57.2204   91.8426   -0.8337 O.3     1  UNL1       -0.3784
     31 H          57.4692   91.5146   -1.7120 H       1  UNL1        0.2106
     32 C          64.5605   94.2692   -0.5195 C.2     1  UNL1        0.1732
     33 O          65.1929   92.9706   -0.1149 O.2     1  UNL1       -0.2915
     34 C          65.0014   95.5506    0.1236 C.3     1  UNL1        0.0554
     35 C          65.3292   96.1155   -1.2268 C.3     1  UNL1        0.0077
     36 C          64.6737   94.9857    1.4739 C.3     1  UNL1        0.0077
     37 C          65.4424   96.8320    0.7666 C.3     1  UNL1        0.0077
@<TRIPOS>BOND
     1    15    16    1
     2    16    17   ar
     3    17    18   ar
     4    18     9    1
     5     9    10   ar
     6    10    11   ar
     7    11    12   ar
     8    12     1    1
     9     1     2   am
    10     2     3    2
    11     2     4    1
    12     4     5    1
    13     4     6    2
    14     6    32    1
    15    32    33    2
    16    32    34    1
    17    34    35    1
    18    34    36    1
    19    34    37    1
    20     6     7    1
    21     7    21    1
    22    21    22   ar
    23    22    23   ar
    24    23    24   ar
    25    24    25   ar
    26    25    26   ar
    27    26    27    1
    28    27    28    1
    29    28    29    1
    30    29    30    1
    31    12    13   ar
    32    13    14   ar
    33    18    19   ar
    34    19    20   ar
    35    20    16   ar
    36    14     9   ar
    37     7     1    1
    38    26    21   ar
    39     5     8    1
    40    30    31    1
@<TRIPOS>MOLECULE
*****
 37 40 0 0 0
SMALL
GASTEIGER

@<TRIPOS>ATOM
      1 N          61.1649   94.3205   -2.3501 N.am    1  UNL1       -0.2463
      2 C          62.1452   93.8328   -3.3754 C.2     1  UNL1        0.2869
      3 O          61.8456   93.5515   -4.8180 O.2     1  UNL1       -0.2662
      4 C          63.4778   93.6758   -2.7049 C.2     1  UNL1        0.1887
      5 O          64.7446   93.2099   -3.3591 O.2     1  UNL1       -0.5020
      6 C          63.3210   94.0665   -1.2651 C.2     1  UNL1        0.0732
      7 C          61.8916   94.4650   -1.0459 C.3     1  UNL1        0.1338
      8 H          64.7471   92.9863   -4.2690 H       1  UNL1        0.2924
      9 C          56.8089   95.1966   -3.0621 C.ar    1  UNL1        0.0392
     10 C          57.2157   93.9294   -2.3703 C.ar    1  UNL1        0.0044
     11 C          58.6677   93.6374   -2.1329 C.ar    1  UNL1        0.0150
     12 C          59.7129   94.6125   -2.5874 C.ar    1  UNL1        0.0548
     13 C          59.3060   95.8798   -3.2792 C.ar    1  UNL1        0.0150
     14 C          57.8540   96.1718   -3.5166 C.ar    1  UNL1        0.0044
     15 C          52.2729   96.5242   -5.4167 C.3     1  UNL1        0.0978
     16 C          53.2719   96.0989   -4.3817 C.ar    1  UNL1        0.2371
     17 N          54.7453   95.9206   -4.5992 N.ar    1  UNL1       -0.1907
     18 C          55.3568   95.4887   -3.2994 C.ar    1  UNL1        0.2033
     19 N          54.2613   95.4000   -2.2786 N.ar    1  UNL1       -0.0560
     20 O          52.9728   95.7771   -2.9474 O.2     1  UNL1       -0.3370
     21 C          61.2939   94.9267    0.2501 C.ar    1  UNL1        0.0344
     22 C          61.0574   96.3886    0.4882 C.ar    1  UNL1        0.0007
     23 C          60.4597   96.8504    1.7842 C.ar    1  UNL1       -0.0001
     24 C          60.0985   95.8502    2.8420 C.ar    1  UNL1        0.0031
     25 C          60.3350   94.3882    2.6039 C.ar    1  UNL1        0.0366
     26 C          60.9328   93.9264    1.3080 C.ar    1  UNL1        0.1365
     27 O          61.1693   92.4645    1.0699 O.3     1  UNL1       -0.4730
     28 C          62.3939   91.8022    1.6283 C.3     1  UNL1        0.2370
     29 C          62.5819   91.7029    3.1130 C.3     1  UNL1        0.1847
     30 O          64.0268   91.3602    3.3248 O.3     1  UNL1       -0.3784
     31 H          64.2320   90.5287    2.8694 H       1  UNL1        0.2106
     32 C          64.4037   94.0599   -0.2268 C.2     1  UNL1        0.1732
     33 O          65.1019   92.7786    0.1205 O.2     1  UNL1       -0.2915
     34 C          64.7880   95.3346    0.4640 C.3     1  UNL1        0.0554
     35 C          64.4953   94.7028    1.7926 C.3     1  UNL1        0.0077
     36 C          65.0808   95.9664   -0.8645 C.3     1  UNL1        0.0077
     37 C          65.1724   96.6093    1.1549 C.3     1  UNL1        0.0077
@<TRIPOS>BOND
     1    15    16    1
     2    16    17   ar
     3    17    18   ar
     4    18     9    1
     5     9    10   ar
     6    10    11   ar
     7    11    12   ar
     8    12     1    1
     9     1     2   am
    10     2     3    2
    11     2     4    1
    12     4     5    1
    13     4     6    2
    14     6    32    1
    15    32    33    2
    16    32    34    1
    17    34    35    1
    18    34    36    1
    19    34    37    1
    20     6     7    1
    21     7    21    1
    22    21    22   ar
    23    22    23   ar
    24    23    24   ar
    25    24    25   ar
    26    25    26   ar
    27    26    27    1
    28    27    28    1
    29    28    29    1
    30    29    30    1
    31    12    13   ar
    32    13    14   ar
    33    18    19   ar
    34    19    20   ar
    35    20    16   ar
    36    14     9   ar
    37     7     1    1
    38    26    21   ar
    39     5     8    1
    40    30    31    1
@<TRIPOS>MOLECULE
*****
 37 40 0 0 0
SMALL
GASTEIGER

@<TRIPOS>ATOM
      1 N          63.3804   85.9590   14.0248 N.am    1  UNL1       -0.2463
      2 C          63.4473   85.2621   15.3514 C.2     1  UNL1        0.2869
      3 O          63.9272   85.8624   16.6395 O.2     1  UNL1       -0.2662
      4 C          62.9502   83.8594   15.1637 C.2     1  UNL1        0.1887
      5 O          62.8456   82.8108   16.2311 O.2     1  UNL1       -0.5020
      6 C          62.5760   83.6894   13.7210 C.2     1  UNL1        0.0732
      7 C          62.8418   84.9870   13.0172 C.3     1  UNL1        0.1338
      8 H          63.1043   83.0091   17.1096 H       1  UNL1        0.2924
      9 C          64.5839   90.2180   13.2109 C.ar    1  UNL1        0.0392
     10 C          63.7097   89.4863   12.2360 C.ar    1  UNL1        0.0044
     11 C          63.3085   88.0667   12.5073 C.ar    1  UNL1        0.0150
     12 C          63.7815   87.3787   13.7534 C.ar    1  UNL1        0.0548
     13 C          64.6557   88.1104   14.7283 C.ar    1  UNL1        0.0150
     14 C          65.0569   89.5301   14.4570 C.ar    1  UNL1        0.0044
     15 C          65.7400   94.7178   10.7015 C.3     1  UNL1        0.0978
     16 C          65.5164   93.7060   11.7861 C.ar    1  UNL1        0.2371
     17 N          65.0818   92.2839   11.5893 N.ar    1  UNL1       -0.1907
     18 C          64.9850   91.6377   12.9395 C.ar    1  UNL1        0.2033
     19 N          65.3599   92.6605   13.9708 N.ar    1  UNL1       -0.0560
     20 O          65.6883   93.9387   13.2580 O.2     1  UNL1       -0.3370
     21 C          62.6099   85.2640   11.5614 C.ar    1  UNL1        0.0344
     22 C          61.5278   86.2142   11.1417 C.ar    1  UNL1        0.0007
     23 C          61.2959   86.4912    9.6859 C.ar    1  UNL1       -0.0001
     24 C          62.1461   85.8179    8.6496 C.ar    1  UNL1        0.0031
     25 C          63.2283   84.8677    9.0693 C.ar    1  UNL1        0.0366
     26 C          63.4602   84.5907   10.5251 C.ar    1  UNL1        0.1365
     27 O          64.5423   83.6406   10.9447 O.3     1  UNL1       -0.4730
     28 C          64.5160   82.2175   10.4711 C.3     1  UNL1        0.2370
     29 C          63.2108   81.5688   10.1170 C.3     1  UNL1        0.1847
     30 O          63.5193   80.1196    9.8833 O.3     1  UNL1       -0.3784
     31 H          64.1768   80.0391    9.1747 H       1  UNL1        0.2106
     32 C          62.0315   82.4409   13.0926 C.2     1  UNL1        0.1732
     33 O          61.2587   82.5226   11.8096 O.2     1  UNL1       -0.2915
     34 C          62.2597   81.1108   13.7473 C.3     1  UNL1        0.0554
     35 C          60.7922   81.0021   14.0382 C.3     1  UNL1        0.0077
     36 C          63.7272   81.2194   13.4563 C.3     1  UNL1        0.0077
     37 C          62.4880   79.7806   14.4019 C.3     1  UNL1        0.0077
@<TRIPOS>BOND
     1    15    16    1
     2    16    17   ar
     3    17    18   ar
     4    18     9    1
     5     9    10   ar
     6    10    11   ar
     7    11    12   ar
     8    12     1    1
     9     1     2   am
    10     2     3    2
    11     2     4    1
    12     4     5    1
    13     4     6    2
    14     6    32    1
    15    32    33    2
    16    32    34    1
    17    34    35    1
    18    34    36    1
    19    34    37    1
    20     6     7    1
    21     7    21    1
    22    21    22   ar
    23    22    23   ar
    24    23    24   ar
    25    24    25   ar
    26    25    26   ar
    27    26    27    1
    28    27    28    1
    29    28    29    1
    30    29    30    1
    31    12    13   ar
    32    13    14   ar
    33    18    19   ar
    34    19    20   ar
    35    20    16   ar
    36    14     9   ar
    37     7     1    1
    38    26    21   ar
    39     5     8    1
    40    30    31    1
@<TRIPOS>MOLECULE
*****
 37 40 0 0 0
SMALL
GASTEIGER

@<TRIPOS>ATOM
      1 N          63.4204   86.1128   12.6253 N.am    1  UNL1       -0.2463
      2 C          64.2042   86.5683   13.8204 C.2     1  UNL1        0.2869
      3 O          65.0078   85.6913   14.7343 O.2     1  UNL1       -0.2662
      4 C          64.0435   88.0548   13.9411 C.2     1  UNL1        0.1887
      5 O          64.6580   88.9252   14.9969 O.2     1  UNL1       -0.5020
      6 C          63.1603   88.5180   12.8206 C.2     1  UNL1        0.0732
      7 C          62.7752   87.3178   12.0074 C.3     1  UNL1        0.1338
      8 H          65.1990   88.5452   15.6609 H       1  UNL1        0.2924
      9 C          63.0668   81.8755   11.1523 C.ar    1  UNL1        0.0392
     10 C          62.4408   82.2707   12.4569 C.ar    1  UNL1        0.0044
     11 C          62.5587   83.6831   12.9479 C.ar    1  UNL1        0.0150
     12 C          63.3025   84.7003   12.1343 C.ar    1  UNL1        0.0548
     13 C          63.9285   84.3051   10.8297 C.ar    1  UNL1        0.0150
     14 C          63.8106   82.8926   10.3387 C.ar    1  UNL1        0.0044
     15 C          62.7911   76.6035   11.0426 C.3     1  UNL1        0.0978
     16 C          62.8222   78.0397   10.6109 C.ar    1  UNL1        0.2371
     17 N          62.9681   79.2288   11.5136 N.ar    1  UNL1       -0.1907
     18 C          62.9489   80.4629   10.6614 C.ar    1  UNL1        0.2033
     19 N          62.7910   80.0367    9.2319 N.ar    1  UNL1       -0.0560
     20 O          62.7127   78.5391    9.2007 O.2     1  UNL1       -0.3370
     21 C          61.8988   87.3219   10.7901 C.ar    1  UNL1        0.0344
     22 C          62.4361   86.8340    9.4774 C.ar    1  UNL1        0.0007
     23 C          61.5597   86.8381    8.2601 C.ar    1  UNL1       -0.0001
     24 C          60.1459   87.3301    8.3554 C.ar    1  UNL1        0.0031
     25 C          59.6086   87.8180    9.6682 C.ar    1  UNL1        0.0366
     26 C          60.4850   87.8139   10.8855 C.ar    1  UNL1        0.1365
     27 O          59.9477   88.3018   12.1981 O.3     1  UNL1       -0.4730
     28 C          58.6594   89.0690   12.2427 C.3     1  UNL1        0.2370
     29 C          58.6517   90.5397   11.9485 C.3     1  UNL1        0.1847
     30 O          59.6789   90.7522   10.8761 O.3     1  UNL1       -0.3784
     31 H          60.5428   90.4420   11.1899 H       1  UNL1        0.2106
     32 C          62.7365   89.9329   12.5592 C.2     1  UNL1        0.1732
     33 O          61.4467   90.4466   13.1269 O.2     1  UNL1       -0.2915
     34 C          63.6027   90.8342   11.7301 C.3     1  UNL1        0.0554
     35 C          64.3202   91.2837   12.9683 C.3     1  UNL1        0.0077
     36 C          62.8852   90.3847   10.4919 C.3     1  UNL1        0.0077
     37 C          64.4688   91.7355   10.9010 C.3     1  UNL1        0.0077
@<TRIPOS>BOND
     1    15    16    1
     2    16    17   ar
     3    17    18   ar
     4    18     9    1
     5     9    10   ar
     6    10    11   ar
     7    11    12   ar
     8    12     1    1
     9     1     2   am
    10     2     3    2
    11     2     4    1
    12     4     5    1
    13     4     6    2
    14     6    32    1
    15    32    33    2
    16    32    34    1
    17    34    35    1
    18    34    36    1
    19    34    37    1
    20     6     7    1
    21     7    21    1
    22    21    22   ar
    23    22    23   ar
    24    23    24   ar
    25    24    25   ar
    26    25    26   ar
    27    26    27    1
    28    27    28    1
    29    28    29    1
    30    29    30    1
    31    12    13   ar
    32    13    14   ar
    33    18    19   ar
    34    19    20   ar
    35    20    16   ar
    36    14     9   ar
    37     7     1    1
    38    26    21   ar
    39     5     8    1
    40    30    31    1
@<TRIPOS>MOLECULE
*****
 37 40 0 0 0
SMALL
GASTEIGER

@<TRIPOS>ATOM
      1 N          64.5940   91.5301   12.0479 N.am    1  UNL1       -0.2463
      2 C          64.0332   92.0349   10.7515 C.2     1  UNL1        0.2869
      3 O          63.0800   91.2991    9.8571 O.2     1  UNL1       -0.2662
      4 C          64.5929   93.4048   10.5064 C.2     1  UNL1        0.1887
      5 O          64.2978   94.2793    9.3240 O.2     1  UNL1       -0.5020
      6 C          65.4997   93.7466   11.6514 C.2     1  UNL1        0.0732
      7 C          65.5004   92.5880   12.6041 C.3     1  UNL1        0.1338
      8 H          63.7153   93.9802    8.6538 H       1  UNL1        0.2924
      9 C          63.7121   87.5421   13.9369 C.ar    1  UNL1        0.0392
     10 C          63.1692   87.8639   12.5761 C.ar    1  UNL1        0.0044
     11 C          63.4631   89.1932   11.9465 C.ar    1  UNL1        0.0150
     12 C          64.3000   90.2007   12.6775 C.ar    1  UNL1        0.0548
     13 C          64.8429   89.8789   14.0383 C.ar    1  UNL1        0.0150
     14 C          64.5490   88.5496   14.6680 C.ar    1  UNL1        0.0044
     15 C          62.3802   82.4727   14.5758 C.3     1  UNL1        0.0978
     16 C          62.8060   83.8826   14.8602 C.ar    1  UNL1        0.2371
     17 N          62.9868   84.9711   13.8440 N.ar    1  UNL1       -0.1907
     18 C          63.4182   86.2128   14.5665 C.ar    1  UNL1        0.2033
     19 N          63.5040   85.8918   16.0293 N.ar    1  UNL1       -0.0560
     20 O          63.1256   84.4517   16.2108 O.2     1  UNL1       -0.3370
     21 C          66.2719   92.5023   13.8875 C.ar    1  UNL1        0.0344
     22 C          65.5486   92.5349   15.2012 C.ar    1  UNL1        0.0007
     23 C          66.3201   92.4493   16.4846 C.ar    1  UNL1       -0.0001
     24 C          67.8151   92.3310   16.4545 C.ar    1  UNL1        0.0031
     25 C          68.5385   92.2985   15.1408 C.ar    1  UNL1        0.0366
     26 C          67.7670   92.3841   13.8574 C.ar    1  UNL1        0.1365
     27 O          68.4904   92.3515   12.5438 O.3     1  UNL1       -0.4730
     28 C          68.0569   91.3954   11.4723 C.3     1  UNL1        0.2370
     29 C          68.2235   91.7624   10.0275 C.3     1  UNL1        0.1847
     30 O          69.3834   92.7120    9.9732 O.3     1  UNL1       -0.3784
     31 H          69.1965   93.4828   10.5317 H       1  UNL1        0.2106
     32 C          66.2705   95.0230   11.8150 C.2     1  UNL1        0.1732
     33 O          66.8389   95.3896   13.1539 O.2     1  UNL1       -0.2915
     34 C          66.4730   95.9328   10.6397 C.3     1  UNL1        0.0554
     35 C          67.5294   95.0103   10.1077 C.3     1  UNL1        0.0077
     36 C          65.4166   96.8552   11.1718 C.3     1  UNL1        0.0077
     37 C          66.6755   96.8425    9.4645 C.3     1  UNL1        0.0077
@<TRIPOS>BOND
     1    15    16    1
     2    16    17   ar
     3    17    18   ar
     4    18     9    1
     5     9    10   ar
     6    10    11   ar
     7    11    12   ar
     8    12     1    1
     9     1     2   am
    10     2     3    2
    11     2     4    1
    12     4     5    1
    13     4     6    2
    14     6    32    1
    15    32    33    2
    16    32    34    1
    17    34    35    1
    18    34    36    1
    19    34    37    1
    20     6     7    1
    21     7    21    1
    22    21    22   ar
    23    22    23   ar
    24    23    24   ar
    25    24    25   ar
    26    25    26   ar
    27    26    27    1
    28    27    28    1
    29    28    29    1
    30    29    30    1
    31    12    13   ar
    32    13    14   ar
    33    18    19   ar
    34    19    20   ar
    35    20    16   ar
    36    14     9   ar
    37     7     1    1
    38    26    21   ar
    39     5     8    1
    40    30    31    1
