@<TRIPOS>MOLECULE
*****
 41 45 0 0 0
SMALL
GASTEIGER

@<TRIPOS>ATOM
      1 C          64.4647   91.8132   13.0903 C.ar    1  UNL1        0.1512
      2 C          64.0198   90.9615   11.9385 C.ar    1  UNL1        0.0619
      3 C          63.4066   89.7113   12.4960 C.ar    1  UNL1        0.0987
      4 S          63.4725   89.7902   13.9925 S.2     1  UNL1       -0.0618
      5 C          64.1264   91.0892   14.3598 C.ar    1  UNL1        0.1178
      6 N          62.8289   88.5806   11.6973 N.ar    1  UNL1       -0.2823
      7 C          62.0531   88.7096   10.4200 C.ar    1  UNL1        0.1831
      8 N          61.6703   87.3312    9.9691 N.ar    1  UNL1       -0.2236
      9 C          62.2096   86.3503   10.9676 C.ar    1  UNL1        0.0992
     10 C          62.1411   84.8537   11.0423 C.ar    1  UNL1        0.0221
     11 C          62.7886   84.1294   12.1850 C.ar    1  UNL1        0.0194
     12 C          63.5047   84.9017   13.2532 C.ar    1  UNL1        0.0031
     13 C          63.5732   86.3982   13.1785 C.ar    1  UNL1        0.0192
     14 C          62.9256   87.1225   12.0358 C.ar    1  UNL1        0.0835
     15 C          62.7202   82.6328   12.2597 C.ar    1  UNL1        0.0857
     16 C          62.4473   81.9591   13.5718 C.ar    1  UNL1        0.0399
     17 C          62.3788   80.4625   13.6466 C.ar    1  UNL1        0.1034
     18 N          62.5832   79.6396   12.4091 N.ar    1  UNL1       -0.2125
     19 C          62.8561   80.3134   11.0970 C.ar    1  UNL1        0.2137
     20 N          63.0605   79.4906    9.8597 N.pl3   1  UNL1       -0.3274
     21 N          62.9246   81.8100   11.0223 N.ar    1  UNL1       -0.2140
     22 H          63.0156   78.5083    9.9087 H       1  UNL1        0.1452
     23 H          63.2396   79.9328    8.9985 H       1  UNL1        0.1452
     24 C          64.3950   91.5784   15.7522 C.2     1  UNL1        0.2518
     25 N          65.5653   92.4781   16.0184 N.am    1  UNL1       -0.3248
     26 O          63.4932   91.1678   16.8783 O.2     1  UNL1       -0.2697
     27 H          66.1572   92.7475   15.2793 H       1  UNL1        0.1453
     28 H          65.7415   92.7991   16.9322 H       1  UNL1        0.1453
     29 O          65.1309   93.1533   12.9903 O.3     1  UNL1       -0.4740
     30 C          67.5833   92.3385   12.7225 C.3     1  UNL1        0.0523
     31 C          66.4764   93.2753   12.3388 C.3     1  UNL1        0.1882
     32 C          66.7151   94.3341   11.3035 C.ar    1  UNL1        0.0211
     33 C          66.3217   95.7551   11.5793 C.ar    1  UNL1       -0.0009
     34 C          66.5604   96.8139   10.5440 C.ar    1  UNL1       -0.0002
     35 C          67.1926   96.4518    9.2328 C.ar    1  UNL1       -0.0001
     36 C          67.5860   95.0309    8.9570 C.ar    1  UNL1        0.0036
     37 C          67.3473   93.9720    9.9923 C.ar    1  UNL1        0.0708
     38 C          67.7408   92.5511    9.7164 C.3     1  UNL1        0.4184
     39 F          68.1342   91.1301    9.4406 F       1  UNL1       -0.1659
     40 F          66.3053   92.1313    9.8315 F       1  UNL1       -0.1659
     41 F          69.1762   92.9709    9.6013 F       1  UNL1       -0.1659
@<TRIPOS>BOND
     1    31    30    1
     2    31    29    1
     3    29     1    1
     4     1     2   ar
     5     2     3   ar
     6     3     6    1
     7     6     7   ar
     8     7     8   ar
     9     8     9   ar
    10     9    10   ar
    11    10    11   ar
    12    11    15    1
    13    15    16   ar
    14    16    17   ar
    15    17    18   ar
    16    18    19   ar
    17    19    20    1
    18    19    21   ar
    19    11    12   ar
    20    12    13   ar
    21    13    14   ar
    22     3     4   ar
    23     4     5   ar
    24     5    24    1
    25    24    25   am
    26    24    26    2
    27    31    32    1
    28    32    33   ar
    29    33    34   ar
    30    34    35   ar
    31    35    36   ar
    32    36    37   ar
    33    37    38    1
    34    38    39    1
    35    38    40    1
    36    38    41    1
    37     5     1   ar
    38    37    32   ar
    39    14     6   ar
    40    14     9   ar
    41    21    15   ar
    42    20    22    1
    43    20    23    1
    44    25    27    1
    45    25    28    1
@<TRIPOS>MOLECULE
*****
 41 45 0 0 0
SMALL
GASTEIGER

@<TRIPOS>ATOM
      1 C          64.4577   91.8038   13.1007 C.ar    1  UNL1        0.1512
      2 C          64.0302   90.9739   11.9266 C.ar    1  UNL1        0.0619
      3 C          63.3301   89.7552   12.4505 C.ar    1  UNL1        0.0987
      4 S          63.3247   89.8318   13.9485 S.2     1  UNL1       -0.0618
      5 C          64.0216   91.0979   14.3504 C.ar    1  UNL1        0.1178
      6 N          62.7390   88.6533   11.6219 N.ar    1  UNL1       -0.2823
      7 C          61.8976   88.8288   10.3926 C.ar    1  UNL1        0.1831
      8 N          61.5242   87.4665    9.8882 N.ar    1  UNL1       -0.2236
      9 C          62.1348   86.4490   10.8057 C.ar    1  UNL1        0.0992
     10 C          62.1041   84.9493   10.8040 C.ar    1  UNL1        0.0221
     11 C          62.8242   84.1832   11.8737 C.ar    1  UNL1        0.0194
     12 C          63.5751   84.9168   12.9453 C.ar    1  UNL1        0.0031
     13 C          63.6057   86.4164   12.9470 C.ar    1  UNL1        0.0192
     14 C          62.8856   87.1825   11.8773 C.ar    1  UNL1        0.0835
     15 C          62.7936   82.6835   11.8720 C.ar    1  UNL1        0.0857
     16 C          63.0908   81.9287   10.6102 C.ar    1  UNL1        0.0399
     17 C          63.0602   80.4291   10.6085 C.ar    1  UNL1        0.1034
     18 N          62.7323   79.6841   11.8685 N.ar    1  UNL1       -0.2125
     19 C          62.4351   80.4388   13.1302 C.ar    1  UNL1        0.2137
     20 N          62.1072   79.6939   14.3902 N.pl3   1  UNL1       -0.3274
     21 N          62.4657   81.9386   13.1320 N.ar    1  UNL1       -0.2140
     22 H          62.0871   78.7096   14.3891 H       1  UNL1        0.1452
     23 H          61.9122   80.1893   15.2183 H       1  UNL1        0.1452
     24 C          64.2435   91.5744   15.7554 C.2     1  UNL1        0.2518
     25 N          65.3667   92.5215   16.0575 N.am    1  UNL1       -0.3248
     26 O          63.3421   91.1038   16.8581 O.2     1  UNL1       -0.2697
     27 H          65.9584   92.8303   15.3338 H       1  UNL1        0.1453
     28 H          65.5123   92.8342   16.9796 H       1  UNL1        0.1453
     29 O          65.1921   93.1100   13.0366 O.3     1  UNL1       -0.4740
     30 C          67.6339   93.1446   13.9234 C.3     1  UNL1        0.0523
     31 C          66.6690   93.1280   12.7750 C.3     1  UNL1        0.1882
     32 C          67.1810   93.1294   11.3651 C.ar    1  UNL1        0.0211
     33 C          68.0230   91.9903   10.8718 C.ar    1  UNL1       -0.0009
     34 C          68.5350   91.9917    9.4619 C.ar    1  UNL1       -0.0002
     35 C          68.2050   93.1323    8.5453 C.ar    1  UNL1       -0.0001
     36 C          67.3630   94.2714    9.0386 C.ar    1  UNL1        0.0036
     37 C          66.8510   94.2700   10.4485 C.ar    1  UNL1        0.0708
     38 C          66.0090   95.4091   10.9418 C.3     1  UNL1        0.4184
     39 F          65.1670   96.5483   11.4351 F       1  UNL1       -0.1659
     40 F          64.7709   94.6814   10.5088 F       1  UNL1       -0.1659
     41 F          67.2471   96.1368   11.3748 F       1  UNL1       -0.1659
@<TRIPOS>BOND
     1    31    30    1
     2    31    29    1
     3    29     1    1
     4     1     2   ar
     5     2     3   ar
     6     3     6    1
     7     6     7   ar
     8     7     8   ar
     9     8     9   ar
    10     9    10   ar
    11    10    11   ar
    12    11    15    1
    13    15    16   ar
    14    16    17   ar
    15    17    18   ar
    16    18    19   ar
    17    19    20    1
    18    19    21   ar
    19    11    12   ar
    20    12    13   ar
    21    13    14   ar
    22     3     4   ar
    23     4     5   ar
    24     5    24    1
    25    24    25   am
    26    24    26    2
    27    31    32    1
    28    32    33   ar
    29    33    34   ar
    30    34    35   ar
    31    35    36   ar
    32    36    37   ar
    33    37    38    1
    34    38    39    1
    35    38    40    1
    36    38    41    1
    37     5     1   ar
    38    37    32   ar
    39    14     6   ar
    40    14     9   ar
    41    21    15   ar
    42    20    22    1
    43    20    23    1
    44    25    27    1
    45    25    28    1
@<TRIPOS>MOLECULE
*****
 41 45 0 0 0
SMALL
GASTEIGER

@<TRIPOS>ATOM
      1 C          64.0884   91.0982   12.6467 C.ar    1  UNL1        0.1512
      2 C          64.4322   90.0606   13.6740 C.ar    1  UNL1        0.0619
      3 C          63.8110   88.7633   13.2486 C.ar    1  UNL1        0.0987
      4 S          63.0832   88.9990   11.9583 S.2     1  UNL1       -0.0618
      5 C          63.2546   90.4420   11.5864 C.ar    1  UNL1        0.1178
      6 N          63.9016   87.4592   13.9841 N.ar    1  UNL1       -0.2823
      7 C          64.3119   87.2812   15.4159 C.ar    1  UNL1        0.1831
      8 N          64.2617   85.8161   15.7337 N.ar    1  UNL1       -0.2236
      9 C          63.8204   85.0886   14.4984 C.ar    1  UNL1        0.0992
     10 C          63.5925   83.6328   14.2184 C.ar    1  UNL1        0.0221
     11 C          63.1420   83.1924   12.8572 C.ar    1  UNL1        0.0194
     12 C          62.9194   84.2079   11.7759 C.ar    1  UNL1        0.0031
     13 C          63.1474   85.6638   12.0558 C.ar    1  UNL1        0.0192
     14 C          63.5979   86.1041   13.4171 C.ar    1  UNL1        0.0835
     15 C          62.9140   81.7364   12.5772 C.ar    1  UNL1        0.0857
     16 C          62.5701   80.8019   13.6989 C.ar    1  UNL1        0.0399
     17 C          62.3421   79.3460   13.4190 C.ar    1  UNL1        0.1034
     18 N          62.4581   78.8246   12.0172 N.ar    1  UNL1       -0.2125
     19 C          62.8020   79.7592   10.8955 C.ar    1  UNL1        0.2137
     20 N          62.9180   79.2379    9.4938 N.pl3   1  UNL1       -0.3274
     21 N          63.0300   81.2151   11.1755 N.ar    1  UNL1       -0.2140
     22 H          62.7683   78.2823    9.3100 H       1  UNL1        0.1452
     23 H          63.1437   79.8513    8.7576 H       1  UNL1        0.1452
     24 C          62.6912   91.1114   10.3679 C.2     1  UNL1        0.2518
     25 N          63.4401   92.2356    9.7158 N.am    1  UNL1       -0.3248
     26 O          61.3788   90.6565    9.8015 O.2     1  UNL1       -0.2697
     27 H          64.3015   92.5342   10.0875 H       1  UNL1        0.1453
     28 H          63.0704   92.6749    8.9161 H       1  UNL1        0.1453
     29 O          64.5051   92.5388   12.6749 O.3     1  UNL1       -0.4740
     30 C          66.6479   93.1554   14.0084 C.3     1  UNL1        0.0523
     31 C          65.9612   92.8980   12.6999 C.3     1  UNL1        0.1882
     32 C          66.7306   92.9999   11.4163 C.ar    1  UNL1        0.0211
     33 C          67.5429   91.8346   10.9343 C.ar    1  UNL1       -0.0009
     34 C          68.3124   91.9365    9.6507 C.ar    1  UNL1       -0.0002
     35 C          68.2695   93.2037    8.8492 C.ar    1  UNL1       -0.0001
     36 C          67.4572   94.3689    9.3311 C.ar    1  UNL1        0.0036
     37 C          66.6877   94.2670   10.6147 C.ar    1  UNL1        0.0708
     38 C          65.8755   95.4322   11.0967 C.3     1  UNL1        0.4184
     39 F          65.0631   96.5975   11.5787 F       1  UNL1       -0.1659
     40 F          64.8161   95.1127   10.0840 F       1  UNL1       -0.1659
     41 F          66.9348   95.7519   12.1094 F       1  UNL1       -0.1659
@<TRIPOS>BOND
     1    31    30    1
     2    31    29    1
     3    29     1    1
     4     1     2   ar
     5     2     3   ar
     6     3     6    1
     7     6     7   ar
     8     7     8   ar
     9     8     9   ar
    10     9    10   ar
    11    10    11   ar
    12    11    15    1
    13    15    16   ar
    14    16    17   ar
    15    17    18   ar
    16    18    19   ar
    17    19    20    1
    18    19    21   ar
    19    11    12   ar
    20    12    13   ar
    21    13    14   ar
    22     3     4   ar
    23     4     5   ar
    24     5    24    1
    25    24    25   am
    26    24    26    2
    27    31    32    1
    28    32    33   ar
    29    33    34   ar
    30    34    35   ar
    31    35    36   ar
    32    36    37   ar
    33    37    38    1
    34    38    39    1
    35    38    40    1
    36    38    41    1
    37     5     1   ar
    38    37    32   ar
    39    14     6   ar
    40    14     9   ar
    41    21    15   ar
    42    20    22    1
    43    20    23    1
    44    25    27    1
    45    25    28    1
@<TRIPOS>MOLECULE
*****
 41 45 0 0 0
SMALL
GASTEIGER

@<TRIPOS>ATOM
      1 C          65.0687   91.8052   13.5146 C.ar    1  UNL1        0.1512
      2 C          64.0256   90.7998   13.9034 C.ar    1  UNL1        0.0619
      3 C          64.6166   89.8981   14.9463 C.ar    1  UNL1        0.0987
      4 S          66.0251   90.3462   15.2021 S.2     1  UNL1       -0.0618
      5 C          66.3045   91.5248   14.3173 C.ar    1  UNL1        0.1178
      6 N          63.9214   88.7499   15.6158 N.ar    1  UNL1       -0.2823
      7 C          63.2253   88.7940   16.9438 C.ar    1  UNL1        0.1831
      8 N          62.6738   87.4274   17.2236 N.ar    1  UNL1       -0.2236
      9 C          63.0291   86.5387   16.0686 C.ar    1  UNL1        0.0992
     10 C          62.7502   85.0909   15.7933 C.ar    1  UNL1        0.0221
     11 C          63.2422   84.4604   14.5244 C.ar    1  UNL1        0.0194
     12 C          64.0133   85.2778   13.5307 C.ar    1  UNL1        0.0031
     13 C          64.2922   86.7256   13.8060 C.ar    1  UNL1        0.0192
     14 C          63.8001   87.3561   15.0749 C.ar    1  UNL1        0.0835
     15 C          62.9633   83.0125   14.2490 C.ar    1  UNL1        0.0857
     16 C          64.0781   82.1003   13.8305 C.ar    1  UNL1        0.0399
     17 C          63.7992   80.6524   13.5552 C.ar    1  UNL1        0.1034
     18 N          62.4055   80.1166   13.6984 N.ar    1  UNL1       -0.2125
     19 C          61.2907   81.0288   14.1169 C.ar    1  UNL1        0.2137
     20 N          59.8970   80.4931   14.2601 N.pl3   1  UNL1       -0.3274
     21 N          61.5696   82.4767   14.3922 N.ar    1  UNL1       -0.2140
     22 H          59.7139   79.5428   14.0794 H       1  UNL1        0.1452
     23 H          59.1653   81.0917   14.5348 H       1  UNL1        0.1452
     24 C          67.5935   92.2889   14.2475 C.2     1  UNL1        0.2518
     25 N          68.6801   91.8430   13.3145 N.am    1  UNL1       -0.3248
     26 O          67.7957   93.4989   15.1106 O.2     1  UNL1       -0.2697
     27 H          68.5473   91.0489   12.7480 H       1  UNL1        0.1453
     28 H          69.5260   92.3445   13.2687 H       1  UNL1        0.1453
     29 O          64.9049   92.8988   12.5013 O.3     1  UNL1       -0.4740
     30 C          63.9282   91.9517   10.2879 C.3     1  UNL1        0.0523
     31 C          65.0550   92.5957   11.0399 C.3     1  UNL1        0.1882
     32 C          66.3319   92.9368   10.3305 C.ar    1  UNL1        0.0211
     33 C          67.2629   91.8443    9.8952 C.ar    1  UNL1       -0.0009
     34 C          68.5398   92.1853    9.1859 C.ar    1  UNL1       -0.0002
     35 C          68.8856   93.6190    8.9118 C.ar    1  UNL1       -0.0001
     36 C          67.9547   94.7115    9.3471 C.ar    1  UNL1        0.0036
     37 C          66.6777   94.3704   10.0565 C.ar    1  UNL1        0.0708
     38 C          65.7467   95.4629   10.4918 C.3     1  UNL1        0.4184
     39 F          64.8157   96.5555   10.9272 F       1  UNL1       -0.1659
     40 F          66.2906   95.3707   11.8867 F       1  UNL1       -0.1659
     41 F          65.2028   95.5552    9.0970 F       1  UNL1       -0.1659
@<TRIPOS>BOND
     1    31    30    1
     2    31    29    1
     3    29     1    1
     4     1     2   ar
     5     2     3   ar
     6     3     6    1
     7     6     7   ar
     8     7     8   ar
     9     8     9   ar
    10     9    10   ar
    11    10    11   ar
    12    11    15    1
    13    15    16   ar
    14    16    17   ar
    15    17    18   ar
    16    18    19   ar
    17    19    20    1
    18    19    21   ar
    19    11    12   ar
    20    12    13   ar
    21    13    14   ar
    22     3     4   ar
    23     4     5   ar
    24     5    24    1
    25    24    25   am
    26    24    26    2
    27    31    32    1
    28    32    33   ar
    29    33    34   ar
    30    34    35   ar
    31    35    36   ar
    32    36    37   ar
    33    37    38    1
    34    38    39    1
    35    38    40    1
    36    38    41    1
    37     5     1   ar
    38    37    32   ar
    39    14     6   ar
    40    14     9   ar
    41    21    15   ar
    42    20    22    1
    43    20    23    1
    44    25    27    1
    45    25    28    1
@<TRIPOS>MOLECULE
*****
 41 45 0 0 0
SMALL
GASTEIGER

@<TRIPOS>ATOM
      1 C          64.3159   91.0956   12.8764 C.ar    1  UNL1        0.1512
      2 C          64.6101   90.0282   13.8884 C.ar    1  UNL1        0.0619
      3 C          63.9114   88.7736   13.4554 C.ar    1  UNL1        0.0987
      4 S          63.1853   89.0654   12.1757 S.2     1  UNL1       -0.0618
      5 C          63.4353   90.5005   11.8178 C.ar    1  UNL1        0.1178
      6 N          63.9347   87.4580   14.1756 N.ar    1  UNL1       -0.2823
      7 C          64.2614   87.2519   15.6250 C.ar    1  UNL1        0.1831
      8 N          64.1640   85.7840   15.9179 N.ar    1  UNL1       -0.2236
      9 C          63.7771   85.0829   14.6495 C.ar    1  UNL1        0.0992
     10 C          63.5355   83.6361   14.3361 C.ar    1  UNL1        0.0221
     11 C          63.1522   83.2238   12.9457 C.ar    1  UNL1        0.0194
     12 C          63.0105   84.2584   11.8689 C.ar    1  UNL1        0.0031
     13 C          63.2521   85.7052   12.1824 C.ar    1  UNL1        0.0192
     14 C          63.6354   86.1175   13.5727 C.ar    1  UNL1        0.0835
     15 C          62.9106   81.7769   12.6322 C.ar    1  UNL1        0.0857
     16 C          62.5416   80.8232   13.7295 C.ar    1  UNL1        0.0399
     17 C          62.3000   79.3764   13.4160 C.ar    1  UNL1        0.1034
     18 N          62.4274   78.8833   12.0051 N.ar    1  UNL1       -0.2125
     19 C          62.7964   79.8370   10.9077 C.ar    1  UNL1        0.2137
     20 N          62.9238   79.3439    9.4969 N.pl3   1  UNL1       -0.3274
     21 N          63.0380   81.2839   11.2213 N.ar    1  UNL1       -0.2140
     22 H          62.7652   78.3943    9.2911 H       1  UNL1        0.1452
     23 H          63.1660   79.9699    8.7766 H       1  UNL1        0.1452
     24 C          62.8988   91.2151   10.6129 C.2     1  UNL1        0.2518
     25 N          63.6824   92.3344    9.9941 N.am    1  UNL1       -0.3248
     26 O          61.5787   90.8102   10.0269 O.2     1  UNL1       -0.2697
     27 H          64.5489   92.6001   10.3788 H       1  UNL1        0.1453
     28 H          63.3303   92.8034    9.2033 H       1  UNL1        0.1453
     29 O          64.8146   92.5097   12.9159 O.3     1  UNL1       -0.4740
     30 C          67.3592   92.0002   13.0398 C.3     1  UNL1        0.0523
     31 C          66.2231   92.8200   12.5039 C.3     1  UNL1        0.1882
     32 C          66.4955   93.9502   11.5560 C.ar    1  UNL1        0.0211
     33 C          66.0343   95.3377   11.8909 C.ar    1  UNL1       -0.0009
     34 C          66.3067   96.4678   10.9430 C.ar    1  UNL1       -0.0002
     35 C          67.0403   96.2105    9.6602 C.ar    1  UNL1       -0.0001
     36 C          67.5015   94.8231    9.3253 C.ar    1  UNL1        0.0036
     37 C          67.2291   93.6928   10.2732 C.ar    1  UNL1        0.0708
     38 C          67.6902   92.3054    9.9383 C.3     1  UNL1        0.4184
     39 F          68.1514   90.9179    9.6033 F       1  UNL1       -0.1659
     40 F          66.2642   91.8427    9.8913 F       1  UNL1       -0.1659
     41 F          69.1163   92.7680    9.9852 F       1  UNL1       -0.1659
@<TRIPOS>BOND
     1    31    30    1
     2    31    29    1
     3    29     1    1
     4     1     2   ar
     5     2     3   ar
     6     3     6    1
     7     6     7   ar
     8     7     8   ar
     9     8     9   ar
    10     9    10   ar
    11    10    11   ar
    12    11    15    1
    13    15    16   ar
    14    16    17   ar
    15    17    18   ar
    16    18    19   ar
    17    19    20    1
    18    19    21   ar
    19    11    12   ar
    20    12    13   ar
    21    13    14   ar
    22     3     4   ar
    23     4     5   ar
    24     5    24    1
    25    24    25   am
    26    24    26    2
    27    31    32    1
    28    32    33   ar
    29    33    34   ar
    30    34    35   ar
    31    35    36   ar
    32    36    37   ar
    33    37    38    1
    34    38    39    1
    35    38    40    1
    36    38    41    1
    37     5     1   ar
    38    37    32   ar
    39    14     6   ar
    40    14     9   ar
    41    21    15   ar
    42    20    22    1
    43    20    23    1
    44    25    27    1
    45    25    28    1
@<TRIPOS>MOLECULE
*****
 41 45 0 0 0
SMALL
GASTEIGER

@<TRIPOS>ATOM
      1 C          65.0401   91.6359   13.2549 C.ar    1  UNL1        0.1512
      2 C          64.2736   90.3722   13.5113 C.ar    1  UNL1        0.0619
      3 C          64.4144   90.0315   14.9653 C.ar    1  UNL1        0.0987
      4 S          65.2680   91.0845   15.6076 S.2     1  UNL1       -0.0618
      5 C          65.6547   92.0760   14.5506 C.ar    1  UNL1        0.1178
      6 N          63.8081   88.8458   15.6557 N.ar    1  UNL1       -0.2823
      7 C          63.2036   88.8390   17.0285 C.ar    1  UNL1        0.1831
      8 N          62.7218   87.4478   17.3158 N.ar    1  UNL1       -0.2236
      9 C          63.0286   86.5949   16.1206 C.ar    1  UNL1        0.0992
     10 C          62.7833   85.1431   15.8340 C.ar    1  UNL1        0.0221
     11 C          63.2094   84.5554   14.5214 C.ar    1  UNL1        0.0194
     12 C          63.8808   85.4195   13.4954 C.ar    1  UNL1        0.0031
     13 C          64.1261   86.8712   13.7820 C.ar    1  UNL1        0.0192
     14 C          63.7000   87.4589   15.0946 C.ar    1  UNL1        0.0835
     15 C          62.9642   83.1036   14.2348 C.ar    1  UNL1        0.0857
     16 C          64.0961   82.2251   13.7909 C.ar    1  UNL1        0.0399
     17 C          63.8509   80.7734   13.5043 C.ar    1  UNL1        0.1034
     18 N          62.4737   80.2000   13.6615 N.ar    1  UNL1       -0.2125
     19 C          61.3418   81.0784   14.1053 C.ar    1  UNL1        0.2137
     20 N          59.9646   80.5051   14.2626 N.pl3   1  UNL1       -0.3274
     21 N          61.5870   82.5303   14.3920 N.ar    1  UNL1       -0.2140
     22 H          59.8037   79.5523   14.0744 H       1  UNL1        0.1452
     23 H          59.2217   81.0817   14.5539 H       1  UNL1        0.1452
     24 C          66.5064   93.2940   14.7535 C.2     1  UNL1        0.2518
     25 N          67.6774   93.2429   15.6896 N.am    1  UNL1       -0.3248
     26 O          66.1872   94.5631   14.0204 O.2     1  UNL1       -0.2697
     27 H          67.8869   92.4099   16.1708 H       1  UNL1        0.1453
     28 H          68.2364   94.0423   15.8228 H       1  UNL1        0.1453
     29 O          65.1693   92.3362   11.9349 O.3     1  UNL1       -0.4740
     30 C          67.7413   91.9900   11.8118 C.3     1  UNL1        0.0523
     31 C          66.5179   92.7786   11.4494 C.3     1  UNL1        0.1882
     32 C          66.6430   94.0097   10.6016 C.ar    1  UNL1        0.0211
     33 C          65.8333   95.2298   10.9268 C.ar    1  UNL1       -0.0009
     34 C          65.9584   96.4609   10.0790 C.ar    1  UNL1       -0.0002
     35 C          66.8932   96.4718    8.9060 C.ar    1  UNL1       -0.0001
     36 C          67.7029   95.2518    8.5808 C.ar    1  UNL1        0.0036
     37 C          67.5778   94.0207    9.4286 C.ar    1  UNL1        0.0708
     38 C          68.3875   92.8007    9.1034 C.3     1  UNL1        0.4184
     39 F          69.1973   91.5806    8.7782 F       1  UNL1       -0.1659
     40 F          69.6356   93.5154    9.5295 F       1  UNL1       -0.1659
     41 F          67.1395   92.0859    8.6773 F       1  UNL1       -0.1659
@<TRIPOS>BOND
     1    31    30    1
     2    31    29    1
     3    29     1    1
     4     1     2   ar
     5     2     3   ar
     6     3     6    1
     7     6     7   ar
     8     7     8   ar
     9     8     9   ar
    10     9    10   ar
    11    10    11   ar
    12    11    15    1
    13    15    16   ar
    14    16    17   ar
    15    17    18   ar
    16    18    19   ar
    17    19    20    1
    18    19    21   ar
    19    11    12   ar
    20    12    13   ar
    21    13    14   ar
    22     3     4   ar
    23     4     5   ar
    24     5    24    1
    25    24    25   am
    26    24    26    2
    27    31    32    1
    28    32    33   ar
    29    33    34   ar
    30    34    35   ar
    31    35    36   ar
    32    36    37   ar
    33    37    38    1
    34    38    39    1
    35    38    40    1
    36    38    41    1
    37     5     1   ar
    38    37    32   ar
    39    14     6   ar
    40    14     9   ar
    41    21    15   ar
    42    20    22    1
    43    20    23    1
    44    25    27    1
    45    25    28    1
