@<TRIPOS>MOLECULE
*****
 26 28 0 0 0
SMALL
GASTEIGER

@<TRIPOS>ATOM
      1 C          65.8706   92.6826   12.4747 C.3     1  UNL1        0.0509
      2 C          66.5884   93.2415   11.2821 C.3     1  UNL1        0.0091
      3 C          66.4579   94.6966   10.9422 C.3     1  UNL1        0.0175
      4 C          67.1757   95.2556    9.7495 C.3     1  UNL1        0.0686
      5 N          68.0241   94.3594    8.8969 N.3     1  UNL1       -0.2975
      6 C          68.1547   92.9042    9.2368 C.3     1  UNL1        0.0686
      7 C          67.4368   92.3453   10.4294 C.3     1  UNL1        0.0175
      8 H          68.9665   94.7497    8.9063 H       1  UNL1        0.1232
      9 C          66.5749   92.5830   13.7953 C.ar    1  UNL1        0.0546
     10 C          67.8736   91.8773   14.0509 C.ar    1  UNL1        0.1131
     11 N          68.2055   92.0298   15.5057 N.ar    1  UNL1       -0.2229
     12 C          67.1120   92.8298   16.1493 C.ar    1  UNL1        0.1748
     13 N          66.1042   93.1717   15.0922 N.ar    1  UNL1       -0.3382
     14 H          65.2787   93.6912   15.2261 H       1  UNL1        0.1672
     15 C          64.4484   92.2232   12.3467 C.3     1  UNL1        0.0680
     16 S          64.0589   90.8508   12.8103 S.3     1  UNL1       -0.1133
     17 C          61.7666   88.1160   10.0688 C.ar    1  UNL1       -0.0228
     18 C          62.4075   87.5689   11.3098 C.ar    1  UNL1       -0.0038
     19 C          63.1716   88.4806   12.2236 C.ar    1  UNL1        0.0058
     20 C          63.2948   89.9392   11.8965 C.ar    1  UNL1        0.0252
     21 C          62.6540   90.4862   10.6555 C.ar    1  UNL1        0.0058
     22 C          61.8899   89.5746    9.7417 C.ar    1  UNL1       -0.0038
     23 C          61.8982   86.0652    9.5425 C.3     1  UNL1        0.0044
     24 C          61.0025   87.2043    9.1550 C.3     1  UNL1        0.0189
     25 C          60.1069   88.3435    8.7675 C.3     1  UNL1        0.0044
     26 C          60.2384   86.2927    8.2411 C.3     1  UNL1        0.0044
@<TRIPOS>BOND
     1    23    24    1
     2    24    25    1
     3    24    26    1
     4    24    17    1
     5    17    18   ar
     6    18    19   ar
     7    19    20   ar
     8    20    16    1
     9    16    15    1
    10    15     1    1
    11     1     9    1
    12     9    10   ar
    13    10    11   ar
    14    11    12   ar
    15    12    13   ar
    16     1     2    1
    17     2     3    1
    18     3     4    1
    19     4     5    1
    20     5     6    1
    21     6     7    1
    22    20    21   ar
    23    21    22   ar
    24    22    17   ar
    25    13     9   ar
    26     7     2    1
    27    13    14    1
    28     5     8    1
@<TRIPOS>MOLECULE
*****
 26 28 0 0 0
SMALL
GASTEIGER

@<TRIPOS>ATOM
      1 C          64.7848   90.8007   13.8982 C.3     1  UNL1        0.0509
      2 C          64.2756   89.6972   14.7774 C.3     1  UNL1        0.0091
      3 C          63.4728   90.0236   16.0017 C.3     1  UNL1        0.0175
      4 C          62.9635   88.9201   16.8809 C.3     1  UNL1        0.0686
      5 N          63.2571   87.4902   16.5358 N.3     1  UNL1       -0.2975
      6 C          64.0599   87.1638   15.3115 C.3     1  UNL1        0.0686
      7 C          64.5692   88.2672   14.4323 C.3     1  UNL1        0.0175
      8 H          62.3571   87.0218   16.4313 H       1  UNL1        0.1232
      9 C          65.9460   91.6392   14.3436 C.ar    1  UNL1        0.0546
     10 C          67.2196   91.8573   13.5818 C.ar    1  UNL1        0.1131
     11 N          68.0983   92.7597   14.3964 N.ar    1  UNL1       -0.2229
     12 C          67.3677   93.0995   15.6617 C.ar    1  UNL1        0.1748
     13 N          66.0375   92.4069   15.6290 N.ar    1  UNL1       -0.3382
     14 H          65.3459   92.4489   16.3284 H       1  UNL1        0.1672
     15 C          64.1328   91.0656   12.5735 C.3     1  UNL1        0.0680
     16 S          62.6704   90.7883   12.3886 S.3     1  UNL1       -0.1133
     17 C          61.3281   87.6525    9.4535 C.ar    1  UNL1       -0.0228
     18 C          60.8853   89.0757    9.2853 C.ar    1  UNL1       -0.0038
     19 C          61.3327   90.1210   10.2637 C.ar    1  UNL1        0.0058
     20 C          62.2230   89.7431   11.4102 C.ar    1  UNL1        0.0252
     21 C          62.6658   88.3198   11.5784 C.ar    1  UNL1        0.0058
     22 C          62.2184   87.2746   10.6000 C.ar    1  UNL1       -0.0038
     23 C          62.2005   85.9087    8.6179 C.3     1  UNL1        0.0044
     24 C          60.8807   86.6072    8.4751 C.3     1  UNL1        0.0189
     25 C          59.5610   87.3057    8.3323 C.3     1  UNL1        0.0044
     26 C          60.4333   85.5619    7.4967 C.3     1  UNL1        0.0044
@<TRIPOS>BOND
     1    23    24    1
     2    24    25    1
     3    24    26    1
     4    24    17    1
     5    17    18   ar
     6    18    19   ar
     7    19    20   ar
     8    20    16    1
     9    16    15    1
    10    15     1    1
    11     1     9    1
    12     9    10   ar
    13    10    11   ar
    14    11    12   ar
    15    12    13   ar
    16     1     2    1
    17     2     3    1
    18     3     4    1
    19     4     5    1
    20     5     6    1
    21     6     7    1
    22    20    21   ar
    23    21    22   ar
    24    22    17   ar
    25    13     9   ar
    26     7     2    1
    27    13    14    1
    28     5     8    1
@<TRIPOS>MOLECULE
*****
 26 28 0 0 0
SMALL
GASTEIGER

@<TRIPOS>ATOM
      1 C          63.8980   90.5027   13.4416 C.3     1  UNL1        0.0509
      2 C          65.1051   91.3930   13.4634 C.3     1  UNL1        0.0091
      3 C          66.1063   91.2720   14.5737 C.3     1  UNL1        0.0175
      4 C          67.3134   92.1623   14.5955 C.3     1  UNL1        0.0686
      5 N          67.5192   93.1736   13.5069 N.3     1  UNL1       -0.2975
      6 C          66.5179   93.2946   12.3965 C.3     1  UNL1        0.0686
      7 C          65.3109   92.4043   12.3748 C.3     1  UNL1        0.0175
      8 H          68.4167   92.9596   13.0720 H       1  UNL1        0.1232
      9 C          63.6863   89.4993   14.5363 C.ar    1  UNL1        0.0546
     10 C          64.1946   88.0882   14.5491 C.ar    1  UNL1        0.1131
     11 N          63.7515   87.4476   15.8311 N.ar    1  UNL1       -0.2229
     12 C          62.9694   88.4629   16.6105 C.ar    1  UNL1        0.1748
     13 N          62.9291   89.7310   15.8103 N.ar    1  UNL1       -0.3382
     14 H          62.4839   90.5682   16.0748 H       1  UNL1        0.1672
     15 C          62.9027   90.6159   12.3251 C.3     1  UNL1        0.0680
     16 S          61.7431   89.6671   12.2551 S.3     1  UNL1       -0.1133
     17 C          61.4954   86.6592    8.9172 C.ar    1  UNL1       -0.0228
     18 C          60.7588   87.9614    8.8095 C.ar    1  UNL1       -0.0038
     19 C          60.8414   88.9641    9.9221 C.ar    1  UNL1        0.0058
     20 C          61.6605   88.6644   11.1425 C.ar    1  UNL1        0.0252
     21 C          62.3971   87.3622   11.2502 C.ar    1  UNL1        0.0058
     22 C          62.3145   86.3596   10.1375 C.ar    1  UNL1       -0.0038
     23 C          62.8423   85.2712    8.0458 C.3     1  UNL1        0.0044
     24 C          61.4128   85.6566    7.8046 C.3     1  UNL1        0.0189
     25 C          59.9834   86.0419    7.5634 C.3     1  UNL1        0.0044
     26 C          61.3302   84.6540    6.6920 C.3     1  UNL1        0.0044
@<TRIPOS>BOND
     1    23    24    1
     2    24    25    1
     3    24    26    1
     4    24    17    1
     5    17    18   ar
     6    18    19   ar
     7    19    20   ar
     8    20    16    1
     9    16    15    1
    10    15     1    1
    11     1     9    1
    12     9    10   ar
    13    10    11   ar
    14    11    12   ar
    15    12    13   ar
    16     1     2    1
    17     2     3    1
    18     3     4    1
    19     4     5    1
    20     5     6    1
    21     6     7    1
    22    20    21   ar
    23    21    22   ar
    24    22    17   ar
    25    13     9   ar
    26     7     2    1
    27    13    14    1
    28     5     8    1
@<TRIPOS>MOLECULE
*****
 26 28 0 0 0
SMALL
GASTEIGER

@<TRIPOS>ATOM
      1 C          65.9162   92.4498   12.3433 C.3     1  UNL1        0.0509
      2 C          66.5913   92.9789   11.1127 C.3     1  UNL1        0.0091
      3 C          66.1902   94.3108   10.5512 C.3     1  UNL1        0.0175
      4 C          66.8653   94.8399    9.3205 C.3     1  UNL1        0.0686
      5 N          67.9414   94.0372    8.6515 N.3     1  UNL1       -0.2975
      6 C          68.3425   92.7053    9.2131 C.3     1  UNL1        0.0686
      7 C          67.6674   92.1762   10.4437 C.3     1  UNL1        0.0175
      8 H          68.7800   94.6179    8.6434 H       1  UNL1        0.1232
      9 C          66.6149   92.5154   13.6690 C.ar    1  UNL1        0.0546
     10 C          67.7221   91.6133   14.1276 C.ar    1  UNL1        0.1131
     11 N          68.1206   92.0350   15.5109 N.ar    1  UNL1       -0.2229
     12 C          67.2596   93.1977   15.9072 C.ar    1  UNL1        0.1748
     13 N          66.3290   93.4945   14.7688 N.ar    1  UNL1       -0.3382
     14 H          65.6499   94.2069   14.7473 H       1  UNL1        0.1672
     15 C          64.5424   91.8550   12.2481 C.3     1  UNL1        0.0680
     16 S          63.9523   91.1381   13.4261 S.3     1  UNL1       -0.1133
     17 C          63.6728   86.6468   13.4176 C.ar    1  UNL1       -0.0228
     18 C          64.3454   87.3542   14.5564 C.ar    1  UNL1       -0.0038
     19 C          64.4386   88.8513   14.5593 C.ar    1  UNL1        0.0058
     20 C          63.8591   89.6410   13.4233 C.ar    1  UNL1        0.0252
     21 C          63.1864   88.9335   12.2844 C.ar    1  UNL1        0.0058
     22 C          63.0933   87.4364   12.2816 C.ar    1  UNL1       -0.0038
     23 C          62.6761   85.2082   12.2188 C.3     1  UNL1        0.0044
     24 C          63.5796   85.1497   13.4147 C.3     1  UNL1        0.0189
     25 C          64.4831   85.0912   14.6107 C.3     1  UNL1        0.0044
     26 C          63.4864   83.6526   13.4119 C.3     1  UNL1        0.0044
@<TRIPOS>BOND
     1    23    24    1
     2    24    25    1
     3    24    26    1
     4    24    17    1
     5    17    18   ar
     6    18    19   ar
     7    19    20   ar
     8    20    16    1
     9    16    15    1
    10    15     1    1
    11     1     9    1
    12     9    10   ar
    13    10    11   ar
    14    11    12   ar
    15    12    13   ar
    16     1     2    1
    17     2     3    1
    18     3     4    1
    19     4     5    1
    20     5     6    1
    21     6     7    1
    22    20    21   ar
    23    21    22   ar
    24    22    17   ar
    25    13     9   ar
    26     7     2    1
    27    13    14    1
    28     5     8    1
@<TRIPOS>MOLECULE
*****
 26 28 0 0 0
SMALL
GASTEIGER

@<TRIPOS>ATOM
      1 C          61.7783   87.6986    9.7403 C.3     1  UNL1        0.0509
      2 C          62.2818   86.3385   10.1233 C.3     1  UNL1        0.0091
      3 C          62.9697   85.4791    9.1044 C.3     1  UNL1        0.0175
      4 C          63.4732   84.1189    9.4874 C.3     1  UNL1        0.0686
      5 N          63.2886   83.6183   10.8893 N.3     1  UNL1       -0.2975
      6 C          62.6007   84.4778   11.9082 C.3     1  UNL1        0.0686
      7 C          62.0973   85.8378   11.5252 C.3     1  UNL1        0.0175
      8 H          64.2193   83.4161   11.2547 H       1  UNL1        0.1232
      9 C          60.5936   87.8309    8.8299 C.ar    1  UNL1        0.0546
     10 C          59.6391   86.7344    8.4601 C.ar    1  UNL1        0.1131
     11 N          58.6109   87.3087    7.5312 N.ar    1  UNL1       -0.2229
     12 C          58.9298   88.7601    7.3268 C.ar    1  UNL1        0.1748
     13 N          60.1552   89.0828    8.1295 N.ar    1  UNL1       -0.3382
     14 H          60.5946   89.9620    8.1866 H       1  UNL1        0.1672
     15 C          62.4597   88.9265   10.2677 C.3     1  UNL1        0.0680
     16 S          62.2458   89.3503   11.6905 S.3     1  UNL1       -0.1133
     17 C          65.5508   91.4091   13.9462 C.ar    1  UNL1       -0.0228
     18 C          64.9468   90.1470   14.4868 C.ar    1  UNL1       -0.0038
     19 C          63.8452   89.4607   13.7349 C.ar    1  UNL1        0.0058
     20 C          63.3474   90.0366   12.4424 C.ar    1  UNL1        0.0252
     21 C          63.9514   91.2987   11.9018 C.ar    1  UNL1        0.0058
     22 C          65.0530   91.9850   12.6537 C.ar    1  UNL1       -0.0038
     23 C          67.5817   91.8698   13.5424 C.3     1  UNL1        0.0044
     24 C          66.6524   92.0954   14.6981 C.3     1  UNL1        0.0189
     25 C          65.7232   92.3210   15.8538 C.3     1  UNL1        0.0044
     26 C          67.7541   92.7817   15.4500 C.3     1  UNL1        0.0044
@<TRIPOS>BOND
     1    23    24    1
     2    24    25    1
     3    24    26    1
     4    24    17    1
     5    17    18   ar
     6    18    19   ar
     7    19    20   ar
     8    20    16    1
     9    16    15    1
    10    15     1    1
    11     1     9    1
    12     9    10   ar
    13    10    11   ar
    14    11    12   ar
    15    12    13   ar
    16     1     2    1
    17     2     3    1
    18     3     4    1
    19     4     5    1
    20     5     6    1
    21     6     7    1
    22    20    21   ar
    23    21    22   ar
    24    22    17   ar
    25    13     9   ar
    26     7     2    1
    27    13    14    1
    28     5     8    1
@<TRIPOS>MOLECULE
*****
 26 28 0 0 0
SMALL
GASTEIGER

@<TRIPOS>ATOM
      1 C          61.9381   86.6254   10.9114 C.3     1  UNL1        0.0509
      2 C          61.7526   86.1174    9.5122 C.3     1  UNL1        0.0091
      3 C          62.8972   85.4687    8.7920 C.3     1  UNL1        0.0175
      4 C          62.7117   84.9607    7.3928 C.3     1  UNL1        0.0686
      5 N          61.3816   85.1014    6.7140 N.3     1  UNL1       -0.2975
      6 C          60.2369   85.7502    7.4343 C.3     1  UNL1        0.0686
      7 C          60.4224   86.2582    8.8334 C.3     1  UNL1        0.0175
      8 H          61.0771   84.1604    6.4646 H       1  UNL1        0.1232
      9 C          62.5902   85.7556   11.9448 C.ar    1  UNL1        0.0546
     10 C          62.5782   84.2558   11.9698 C.ar    1  UNL1        0.1131
     11 N          63.3495   83.8061   13.1751 N.ar    1  UNL1       -0.2229
     12 C          63.8382   85.0279   13.8951 C.ar    1  UNL1        0.1748
     13 N          63.3690   86.2327   13.1348 N.ar    1  UNL1       -0.3382
     14 H          63.5418   87.1718   13.3746 H       1  UNL1        0.1672
     15 C          61.4713   88.0033   11.2771 C.3     1  UNL1        0.0680
     16 S          62.0933   89.2031   10.6264 S.3     1  UNL1       -0.1133
     17 C          65.0155   91.7441   12.9187 C.ar    1  UNL1       -0.0228
     18 C          64.3688   90.5632   13.5798 C.ar    1  UNL1       -0.0038
     19 C          63.3948   89.7162   12.8157 C.ar    1  UNL1        0.0058
     20 C          63.0674   90.0501   11.3905 C.ar    1  UNL1        0.0252
     21 C          63.7141   91.2311   10.7294 C.ar    1  UNL1        0.0058
     22 C          64.6881   92.0781   11.4934 C.ar    1  UNL1       -0.0038
     23 C          66.1144   93.5107   12.5042 C.3     1  UNL1        0.0044
     24 C          65.9895   92.5911   13.6827 C.3     1  UNL1        0.0189
     25 C          65.8647   91.6716   14.8612 C.3     1  UNL1        0.0044
     26 C          66.9636   93.4381   14.4468 C.3     1  UNL1        0.0044
@<TRIPOS>BOND
     1    23    24    1
     2    24    25    1
     3    24    26    1
     4    24    17    1
     5    17    18   ar
     6    18    19   ar
     7    19    20   ar
     8    20    16    1
     9    16    15    1
    10    15     1    1
    11     1     9    1
    12     9    10   ar
    13    10    11   ar
    14    11    12   ar
    15    12    13   ar
    16     1     2    1
    17     2     3    1
    18     3     4    1
    19     4     5    1
    20     5     6    1
    21     6     7    1
    22    20    21   ar
    23    21    22   ar
    24    22    17   ar
    25    13     9   ar
    26     7     2    1
    27    13    14    1
    28     5     8    1
@<TRIPOS>MOLECULE
*****
 26 28 0 0 0
SMALL
GASTEIGER

@<TRIPOS>ATOM
      1 C          64.2541   89.0588   14.1626 C.3     1  UNL1        0.0509
      2 C          64.6120   90.3115   14.9061 C.3     1  UNL1        0.0091
      3 C          65.8180   91.1058   14.5004 C.3     1  UNL1        0.0175
      4 C          66.1758   92.3585   15.2439 C.3     1  UNL1        0.0686
      5 N          65.3277   92.8168   16.3931 N.3     1  UNL1       -0.2975
      6 C          64.1217   92.0224   16.7988 C.3     1  UNL1        0.0686
      7 C          63.7639   90.7697   16.0553 C.3     1  UNL1        0.0175
      8 H          64.9985   93.7539   16.1608 H       1  UNL1        0.1232
      9 C          63.4352   89.1390   12.9085 C.ar    1  UNL1        0.0546
     10 C          62.9798   90.3979   12.2319 C.ar    1  UNL1        0.1131
     11 N          62.1910   90.0113   11.0160 N.ar    1  UNL1       -0.2229
     12 C          62.1589   88.5135   10.9411 C.ar    1  UNL1        0.1748
     13 N          62.9279   87.9744   12.1107 N.ar    1  UNL1       -0.3382
     14 H          63.0740   87.0232   12.3183 H       1  UNL1        0.1672
     15 C          64.7153   87.7259   14.6733 C.3     1  UNL1        0.0680
     16 S          63.7606   86.8339   15.4101 S.3     1  UNL1       -0.1133
     17 C          62.9416   82.6761   13.8962 C.ar    1  UNL1       -0.0228
     18 C          63.8860   83.5728   13.1519 C.ar    1  UNL1       -0.0038
     19 C          64.1590   84.9587   13.6565 C.ar    1  UNL1        0.0058
     20 C          63.4876   85.4480   14.9055 C.ar    1  UNL1        0.0252
     21 C          62.5433   84.5513   15.6498 C.ar    1  UNL1        0.0058
     22 C          62.2703   83.1653   15.1452 C.ar    1  UNL1       -0.0038
     23 C          63.9106   81.3510   12.5527 C.3     1  UNL1        0.0044
     24 C          62.6686   81.2902   13.3916 C.3     1  UNL1        0.0189
     25 C          61.4266   81.2294   14.2305 C.3     1  UNL1        0.0044
     26 C          62.3956   79.9042   12.8870 C.3     1  UNL1        0.0044
@<TRIPOS>BOND
     1    23    24    1
     2    24    25    1
     3    24    26    1
     4    24    17    1
     5    17    18   ar
     6    18    19   ar
     7    19    20   ar
     8    20    16    1
     9    16    15    1
    10    15     1    1
    11     1     9    1
    12     9    10   ar
    13    10    11   ar
    14    11    12   ar
    15    12    13   ar
    16     1     2    1
    17     2     3    1
    18     3     4    1
    19     4     5    1
    20     5     6    1
    21     6     7    1
    22    20    21   ar
    23    21    22   ar
    24    22    17   ar
    25    13     9   ar
    26     7     2    1
    27    13    14    1
    28     5     8    1
@<TRIPOS>MOLECULE
*****
 26 28 0 0 0
SMALL
GASTEIGER

@<TRIPOS>ATOM
      1 C          61.9644   85.9444   10.2465 C.3     1  UNL1        0.0509
      2 C          62.8417   85.0709   11.0934 C.3     1  UNL1        0.0091
      3 C          63.0765   85.4157   12.5342 C.3     1  UNL1        0.0175
      4 C          63.9539   84.5421   13.3811 C.3     1  UNL1        0.0686
      5 N          64.5964   83.3237   12.7872 N.3     1  UNL1       -0.2975
      6 C          64.3616   82.9790   11.3463 C.3     1  UNL1        0.0686
      7 C          63.4842   83.8525   10.4995 C.3     1  UNL1        0.0175
      8 H          64.2781   82.5255   13.3366 H       1  UNL1        0.1232
      9 C          61.7422   85.6084    8.8017 C.ar    1  UNL1        0.0546
     10 C          60.4669   85.8048    8.0368 C.ar    1  UNL1        0.1131
     11 N          60.6928   85.3347    6.6304 N.ar    1  UNL1       -0.2229
     12 C          62.1078   84.8478    6.5260 C.ar    1  UNL1        0.1748
     13 N          62.7563   85.0169    7.8679 N.ar    1  UNL1       -0.3382
     14 H          63.6846   84.7811    8.0959 H       1  UNL1        0.1672
     15 C          61.3092   87.1540   10.8445 C.3     1  UNL1        0.0680
     16 S          61.5639   88.5114   10.2592 S.3     1  UNL1       -0.1133
     17 C          64.4445   91.3242   12.2693 C.ar    1  UNL1       -0.0228
     18 C          63.9750   90.0930   12.9860 C.ar    1  UNL1       -0.0038
     19 C          63.0148   89.1554   12.3160 C.ar    1  UNL1        0.0058
     20 C          62.5241   89.4490   10.9293 C.ar    1  UNL1        0.0252
     21 C          62.9936   90.6802   10.2126 C.ar    1  UNL1        0.0058
     22 C          63.9538   91.6178   10.8826 C.ar    1  UNL1       -0.0038
     23 C          65.5325   93.0419   11.6646 C.3     1  UNL1        0.0044
     24 C          65.4047   92.2617   12.9393 C.3     1  UNL1        0.0189
     25 C          65.2769   91.4816   14.2141 C.3     1  UNL1        0.0044
     26 C          66.3649   93.1993   13.6094 C.3     1  UNL1        0.0044
@<TRIPOS>BOND
     1    23    24    1
     2    24    25    1
     3    24    26    1
     4    24    17    1
     5    17    18   ar
     6    18    19   ar
     7    19    20   ar
     8    20    16    1
     9    16    15    1
    10    15     1    1
    11     1     9    1
    12     9    10   ar
    13    10    11   ar
    14    11    12   ar
    15    12    13   ar
    16     1     2    1
    17     2     3    1
    18     3     4    1
    19     4     5    1
    20     5     6    1
    21     6     7    1
    22    20    21   ar
    23    21    22   ar
    24    22    17   ar
    25    13     9   ar
    26     7     2    1
    27    13    14    1
    28     5     8    1
@<TRIPOS>MOLECULE
*****
 26 28 0 0 0
SMALL
GASTEIGER

@<TRIPOS>ATOM
      1 C          63.6494   83.5145   13.6908 C.3     1  UNL1        0.0509
      2 C          62.9069   82.2123   13.7459 C.3     1  UNL1        0.0091
      3 C          63.6195   80.9289   13.4375 C.3     1  UNL1        0.0175
      4 C          62.8770   79.6267   13.4926 C.3     1  UNL1        0.0686
      5 N          61.4218   79.6079   13.8561 N.3     1  UNL1       -0.2975
      6 C          60.7092   80.8913   14.1645 C.3     1  UNL1        0.0686
      7 C          61.4517   82.1935   14.1094 C.3     1  UNL1        0.0175
      8 H          61.3322   79.0156   14.6817 H       1  UNL1        0.1232
      9 C          63.4515   84.5369   14.7703 C.ar    1  UNL1        0.0546
     10 C          64.1133   85.8810   14.8437 C.ar    1  UNL1        0.1131
     11 N          63.6279   86.5696   16.0847 N.ar    1  UNL1       -0.2229
     12 C          62.6660   85.6511   16.7784 C.ar    1  UNL1        0.1748
     13 N          62.5570   84.3948   15.9661 N.ar    1  UNL1       -0.3382
     14 H          61.9967   83.6141   16.1801 H       1  UNL1        0.1672
     15 C          64.5898   83.7942   12.5562 C.3     1  UNL1        0.0680
     16 S          64.1544   83.5453   11.1425 S.3     1  UNL1       -0.1133
     17 C          61.3007   86.3864    9.1339 C.ar    1  UNL1       -0.0228
     18 C          62.3185   85.6447    8.3190 C.ar    1  UNL1       -0.0038
     19 C          63.2697   84.6977    8.9886 C.ar    1  UNL1        0.0058
     20 C          63.2032   84.4924   10.4730 C.ar    1  UNL1        0.0252
     21 C          62.1854   85.2341   11.2878 C.ar    1  UNL1        0.0058
     22 C          61.2342   86.1811   10.6182 C.ar    1  UNL1       -0.0038
     23 C          59.8034   86.2038    7.6423 C.3     1  UNL1        0.0044
     24 C          60.3495   87.3334    8.4643 C.3     1  UNL1        0.0189
     25 C          60.8956   88.4631    9.2863 C.3     1  UNL1        0.0044
     26 C          59.3983   88.2804    7.7947 C.3     1  UNL1        0.0044
@<TRIPOS>BOND
     1    23    24    1
     2    24    25    1
     3    24    26    1
     4    24    17    1
     5    17    18   ar
     6    18    19   ar
     7    19    20   ar
     8    20    16    1
     9    16    15    1
    10    15     1    1
    11     1     9    1
    12     9    10   ar
    13    10    11   ar
    14    11    12   ar
    15    12    13   ar
    16     1     2    1
    17     2     3    1
    18     3     4    1
    19     4     5    1
    20     5     6    1
    21     6     7    1
    22    20    21   ar
    23    21    22   ar
    24    22    17   ar
    25    13     9   ar
    26     7     2    1
    27    13    14    1
    28     5     8    1
