@<TRIPOS>MOLECULE
*****
 18 18 0 0 0
SMALL
GASTEIGER

@<TRIPOS>ATOM
      1 C          63.3482   83.7286   10.5945 C.ar    1  UNL1       -0.0221
      2 C          63.5512   84.2352    9.1974 C.ar    1  UNL1       -0.0030
      3 C          62.9413   85.5394    8.7765 C.ar    1  UNL1        0.0143
      4 C          62.1285   86.3370    9.7527 C.ar    1  UNL1        0.0495
      5 C          61.9255   85.8303   11.1499 C.ar    1  UNL1        0.0143
      6 C          62.5354   84.5262   11.5708 C.ar    1  UNL1       -0.0030
      7 N          61.5186   87.6411    9.3318 N.pl3   1  UNL1       -0.2930
      8 H          62.0351   88.4752    9.4136 H       1  UNL1        0.1538
      9 C          60.1217   87.6745    8.7863 C.2     1  UNL1        0.2056
     10 N          59.5512   86.4627    8.1109 N.2     1  UNL1       -0.0679
     11 O          58.1542   86.4961    7.5654 O.2     1  UNL1       -0.4077
     12 H          57.7978   85.7392    7.1435 H       1  UNL1        0.3278
     13 C          63.9581   82.4244   11.0154 C.3     1  UNL1        0.0264
     14 C          63.0766   81.2600   11.3575 C.3     1  UNL1        0.0047
     15 C          62.9259   80.8275   12.7859 C.3     1  UNL1        0.0003
     16 C          61.9061   81.4878   13.6657 C.3     1  UNL1        0.0000
     17 C          63.7660   82.9716   14.7091 C.3     1  UNL1        0.0000
     18 C          62.3227   82.5754   14.6110 C.3     1  UNL1        0.0000
@<TRIPOS>BOND
     1    17    18    1
     2    18    16    1
     3    16    15    1
     4    15    14    1
     5    14    13    1
     6    13     1    1
     7     1     2   ar
     8     2     3   ar
     9     3     4   ar
    10     4     7    1
    11     7     9    1
    12     9    10    2
    13    10    11    1
    14     4     5   ar
    15     5     6   ar
    16     6     1   ar
    17     7     8    1
    18    11    12    1
@<TRIPOS>MOLECULE
*****
 18 18 0 0 0
SMALL
GASTEIGER

@<TRIPOS>ATOM
      1 C          63.2471   84.3117   10.2032 C.ar    1  UNL1       -0.0221
      2 C          62.4334   84.8726   11.3316 C.ar    1  UNL1       -0.0030
      3 C          61.5321   86.0480   11.0944 C.ar    1  UNL1        0.0143
      4 C          61.4444   86.6623    9.7288 C.ar    1  UNL1        0.0495
      5 C          62.2580   86.1014    8.6004 C.ar    1  UNL1        0.0143
      6 C          63.1593   84.9261    8.8376 C.ar    1  UNL1       -0.0030
      7 N          60.5431   87.8376    9.4917 N.pl3   1  UNL1       -0.2930
      8 H          60.2914   88.0875    8.5733 H       1  UNL1        0.1538
      9 C          60.0253   88.6322   10.6537 C.2     1  UNL1        0.2056
     10 N          59.9709   90.1291   10.5741 N.2     1  UNL1       -0.0679
     11 O          59.4531   90.9237   11.7362 O.2     1  UNL1       -0.4077
     12 H          59.4191   91.8588   11.6865 H       1  UNL1        0.3278
     13 C          64.1484   83.1364   10.4403 C.3     1  UNL1        0.0264
     14 C          63.5739   81.8341   10.9134 C.3     1  UNL1        0.0047
     15 C          63.5440   81.5157   12.3789 C.3     1  UNL1        0.0003
     16 C          62.2766   81.0255   13.0142 C.3     1  UNL1        0.0000
     17 C          62.3462   82.9772   14.7277 C.3     1  UNL1        0.0000
     18 C          61.7682   81.6712   14.2690 C.3     1  UNL1        0.0000
@<TRIPOS>BOND
     1    17    18    1
     2    18    16    1
     3    16    15    1
     4    15    14    1
     5    14    13    1
     6    13     1    1
     7     1     2   ar
     8     2     3   ar
     9     3     4   ar
    10     4     7    1
    11     7     9    1
    12     9    10    2
    13    10    11    1
    14     4     5   ar
    15     5     6   ar
    16     6     1   ar
    17     7     8    1
    18    11    12    1
@<TRIPOS>MOLECULE
*****
 18 18 0 0 0
SMALL
GASTEIGER

@<TRIPOS>ATOM
      1 C          63.2294   84.2067   10.3366 C.ar    1  UNL1       -0.0221
      2 C          63.2239   84.7983    8.9583 C.ar    1  UNL1       -0.0030
      3 C          62.4293   86.0393    8.6779 C.ar    1  UNL1        0.0143
      4 C          61.6402   86.6886    9.7759 C.ar    1  UNL1        0.0495
      5 C          61.6457   86.0970   11.1543 C.ar    1  UNL1        0.0143
      6 C          62.4403   84.8560   11.4346 C.ar    1  UNL1       -0.0030
      7 N          60.8456   87.9296    9.4956 N.pl3   1  UNL1       -0.2930
      8 H          60.7639   88.2639    8.5732 H       1  UNL1        0.1538
      9 C          60.1755   88.6612   10.6206 C.2     1  UNL1        0.2056
     10 N          60.0583   90.1560   10.5787 N.2     1  UNL1       -0.0679
     11 O          59.3881   90.8876   11.7037 O.2     1  UNL1       -0.4077
     12 H          59.3149   91.8214   11.6775 H       1  UNL1        0.3278
     13 C          64.0240   82.9657   10.6170 C.3     1  UNL1        0.0264
     14 C          63.3197   81.6787   10.9291 C.3     1  UNL1        0.0047
     15 C          63.2364   81.1939   12.3462 C.3     1  UNL1        0.0003
     16 C          62.0031   81.4584   13.1580 C.3     1  UNL1        0.0000
     17 C          63.2641   83.1574   14.6657 C.3     1  UNL1        0.0000
     18 C          62.0985   82.2423   14.4333 C.3     1  UNL1        0.0000
@<TRIPOS>BOND
     1    17    18    1
     2    18    16    1
     3    16    15    1
     4    15    14    1
     5    14    13    1
     6    13     1    1
     7     1     2   ar
     8     2     3   ar
     9     3     4   ar
    10     4     7    1
    11     7     9    1
    12     9    10    2
    13    10    11    1
    14     4     5   ar
    15     5     6   ar
    16     6     1   ar
    17     7     8    1
    18    11    12    1
@<TRIPOS>MOLECULE
*****
 18 18 0 0 0
SMALL
GASTEIGER

@<TRIPOS>ATOM
      1 C          63.4223   84.1016   10.3973 C.ar    1  UNL1       -0.0221
      2 C          64.2607   83.0247   11.0196 C.ar    1  UNL1       -0.0030
      3 C          64.2822   82.8581   12.5101 C.ar    1  UNL1        0.0143
      4 C          63.4653   83.7683   13.3784 C.ar    1  UNL1        0.0495
      5 C          62.6268   84.8452   12.7562 C.ar    1  UNL1        0.0143
      6 C          62.6053   85.0118   11.2656 C.ar    1  UNL1       -0.0030
      7 N          63.4868   83.6017   14.8690 N.pl3   1  UNL1       -0.2930
      8 H          64.2183   83.1016   15.2979 H       1  UNL1        0.1538
      9 C          62.3937   84.1970   15.7061 C.2     1  UNL1        0.2056
     10 N          62.5785   85.5484   16.3303 N.2     1  UNL1       -0.0679
     11 O          61.4854   86.1437   17.1674 O.2     1  UNL1       -0.4077
     12 H          61.6008   86.9878   17.5573 H       1  UNL1        0.3278
     13 C          63.4007   84.2682    8.9068 C.3     1  UNL1        0.0264
     14 C          62.8783   85.5373    8.3014 C.3     1  UNL1        0.0047
     15 C          61.4551   85.6150    7.8342 C.3     1  UNL1        0.0003
     16 C          60.5216   86.6224    8.4375 C.3     1  UNL1        0.0000
     17 C          60.2821   89.0074    9.4396 C.3     1  UNL1        0.0000
     18 C          61.0650   87.7379    9.2803 C.3     1  UNL1        0.0000
@<TRIPOS>BOND
     1    17    18    1
     2    18    16    1
     3    16    15    1
     4    15    14    1
     5    14    13    1
     6    13     1    1
     7     1     2   ar
     8     2     3   ar
     9     3     4   ar
    10     4     7    1
    11     7     9    1
    12     9    10    2
    13    10    11    1
    14     4     5   ar
    15     5     6   ar
    16     6     1   ar
    17     7     8    1
    18    11    12    1
@<TRIPOS>MOLECULE
*****
 18 18 0 0 0
SMALL
GASTEIGER

@<TRIPOS>ATOM
      1 C          63.1989   84.4689    9.9287 C.ar    1  UNL1       -0.0221
      2 C          62.5767   84.8837   11.2289 C.ar    1  UNL1       -0.0030
      3 C          62.6942   83.9971   12.4331 C.ar    1  UNL1        0.0143
      4 C          63.4338   82.6957   12.3371 C.ar    1  UNL1        0.0495
      5 C          64.0560   82.2809   11.0368 C.ar    1  UNL1        0.0143
      6 C          63.9386   83.1675    9.8326 C.ar    1  UNL1       -0.0030
      7 N          63.5513   81.8091   13.5413 N.pl3   1  UNL1       -0.2930
      8 H          64.3401   81.8758   14.1266 H       1  UNL1        0.1538
      9 C          62.4669   80.8210   13.8538 C.2     1  UNL1        0.2056
     10 N          61.0699   81.2990   14.1180 N.2     1  UNL1       -0.0679
     11 O          59.9855   80.3108   14.4304 O.2     1  UNL1       -0.4077
     12 H          59.1128   80.6094   14.5955 H       1  UNL1        0.3278
     13 C          63.0815   85.3555    8.7244 C.3     1  UNL1        0.0264
     14 C          61.9029   86.2720    8.5799 C.3     1  UNL1        0.0047
     15 C          60.7332   85.8621    7.7351 C.3     1  UNL1        0.0003
     16 C          59.4350   86.6064    7.8397 C.3     1  UNL1        0.0000
     17 C          59.4157   89.0680    7.0090 C.3     1  UNL1        0.0000
     18 C          59.4354   88.0771    8.1349 C.3     1  UNL1        0.0000
@<TRIPOS>BOND
     1    17    18    1
     2    18    16    1
     3    16    15    1
     4    15    14    1
     5    14    13    1
     6    13     1    1
     7     1     2   ar
     8     2     3   ar
     9     3     4   ar
    10     4     7    1
    11     7     9    1
    12     9    10    2
    13    10    11    1
    14     4     5   ar
    15     5     6   ar
    16     6     1   ar
    17     7     8    1
    18    11    12    1
@<TRIPOS>MOLECULE
*****
 18 18 0 0 0
SMALL
GASTEIGER

@<TRIPOS>ATOM
      1 C          63.7796   83.9652   12.2117 C.ar    1  UNL1       -0.0221
      2 C          64.1918   83.4485   10.8653 C.ar    1  UNL1       -0.0030
      3 C          63.6351   84.0724    9.6199 C.ar    1  UNL1        0.0143
      4 C          62.6662   85.2130    9.7210 C.ar    1  UNL1        0.0495
      5 C          62.2541   85.7297   11.0675 C.ar    1  UNL1        0.0143
      6 C          62.8107   85.1058   12.3129 C.ar    1  UNL1       -0.0030
      7 N          62.1096   85.8368    8.4757 N.pl3   1  UNL1       -0.2930
      8 H          62.6237   85.8044    7.6367 H       1  UNL1        0.1538
      9 C          60.7696   86.5101    8.5086 C.2     1  UNL1        0.2056
     10 N          59.6560   86.0071    7.6385 N.2     1  UNL1       -0.0679
     11 O          58.3159   86.6805    7.6715 O.2     1  UNL1       -0.4077
     12 H          57.6203   86.3663    7.1280 H       1  UNL1        0.3278
     13 C          64.3363   83.3414   13.4571 C.3     1  UNL1        0.0264
     14 C          63.4257   83.0123   14.6026 C.3     1  UNL1        0.0047
     15 C          62.0062   82.6052   14.3393 C.3     1  UNL1        0.0003
     16 C          61.6408   81.1514   14.2842 C.3     1  UNL1        0.0000
     17 C          62.7276   80.4291   12.0377 C.3     1  UNL1        0.0000
     18 C          62.4884   80.1942   13.4997 C.3     1  UNL1        0.0000
@<TRIPOS>BOND
     1    17    18    1
     2    18    16    1
     3    16    15    1
     4    15    14    1
     5    14    13    1
     6    13     1    1
     7     1     2   ar
     8     2     3   ar
     9     3     4   ar
    10     4     7    1
    11     7     9    1
    12     9    10    2
    13    10    11    1
    14     4     5   ar
    15     5     6   ar
    16     6     1   ar
    17     7     8    1
    18    11    12    1
@<TRIPOS>MOLECULE
*****
 18 18 0 0 0
SMALL
GASTEIGER

@<TRIPOS>ATOM
      1 C          63.8122   85.8442   15.7167 C.ar    1  UNL1       -0.0221
      2 C          64.3744   86.7897   14.6970 C.ar    1  UNL1       -0.0030
      3 C          64.2353   88.2707   14.8903 C.ar    1  UNL1        0.0143
      4 C          63.5339   88.8061   16.1033 C.ar    1  UNL1        0.0495
      5 C          62.9716   87.8606   17.1229 C.ar    1  UNL1        0.0143
      6 C          63.1108   86.3796   16.9296 C.ar    1  UNL1       -0.0030
      7 N          63.3948   90.2871   16.2966 N.pl3   1  UNL1       -0.2930
      8 H          62.7666   90.6390   16.9680 H       1  UNL1        0.1538
      9 C          64.2127   91.2319   15.4669 C.2     1  UNL1        0.2056
     10 N          64.9735   92.3435   16.1268 N.2     1  UNL1       -0.0679
     11 O          65.7914   93.2883   15.2971 O.2     1  UNL1       -0.4077
     12 H          66.2667   93.9827   15.7093 H       1  UNL1        0.3278
     13 C          63.9513   84.3632   15.5234 C.3     1  UNL1        0.0264
     14 C          64.5722   83.8257   14.2682 C.3     1  UNL1        0.0047
     15 C          63.7036   83.4358   13.1092 C.3     1  UNL1        0.0003
     16 C          63.6902   82.0156   12.6264 C.3     1  UNL1        0.0000
     17 C          61.6739   81.3757   14.1347 C.3     1  UNL1        0.0000
     18 C          62.5073   81.1381   12.9104 C.3     1  UNL1        0.0000
@<TRIPOS>BOND
     1    17    18    1
     2    18    16    1
     3    16    15    1
     4    15    14    1
     5    14    13    1
     6    13     1    1
     7     1     2   ar
     8     2     3   ar
     9     3     4   ar
    10     4     7    1
    11     7     9    1
    12     9    10    2
    13    10    11    1
    14     4     5   ar
    15     5     6   ar
    16     6     1   ar
    17     7     8    1
    18    11    12    1
@<TRIPOS>MOLECULE
*****
 18 18 0 0 0
SMALL
GASTEIGER

@<TRIPOS>ATOM
      1 C          62.7027   85.2528    9.7190 C.ar    1  UNL1       -0.0221
      2 C          62.3585   85.6606   11.1208 C.ar    1  UNL1       -0.0030
      3 C          62.8698   84.8601   12.2818 C.ar    1  UNL1        0.0143
      4 C          63.7252   83.6517   12.0409 C.ar    1  UNL1        0.0495
      5 C          64.0694   83.2439   10.6391 C.ar    1  UNL1        0.0143
      6 C          63.5581   84.0445    9.4781 C.ar    1  UNL1       -0.0030
      7 N          64.2364   82.8512   13.2018 N.pl3   1  UNL1       -0.2930
      8 H          65.1320   83.0322   13.5683 H       1  UNL1        0.1538
      9 C          63.3830   81.7748   13.8044 C.2     1  UNL1        0.2056
     10 N          61.9166   82.0100   14.0146 N.2     1  UNL1       -0.0679
     11 O          61.0632   80.9335   14.6173 O.2     1  UNL1       -0.4077
     12 H          60.1471   81.0804   14.7486 H       1  UNL1        0.3278
     13 C          62.1915   86.0534    8.5581 C.3     1  UNL1        0.0264
     14 C          60.7300   86.0365    8.2210 C.3     1  UNL1        0.0047
     15 C          59.8846   87.2464    8.4883 C.3     1  UNL1        0.0003
     16 C          60.1567   88.1007    9.6909 C.3     1  UNL1        0.0000
     17 C          62.3225   89.3990   10.3024 C.3     1  UNL1        0.0000
     18 C          61.0191   89.3215    9.5641 C.3     1  UNL1        0.0000
@<TRIPOS>BOND
     1    17    18    1
     2    18    16    1
     3    16    15    1
     4    15    14    1
     5    14    13    1
     6    13     1    1
     7     1     2   ar
     8     2     3   ar
     9     3     4   ar
    10     4     7    1
    11     7     9    1
    12     9    10    2
    13    10    11    1
    14     4     5   ar
    15     5     6   ar
    16     6     1   ar
    17     7     8    1
    18    11    12    1
@<TRIPOS>MOLECULE
*****
 18 18 0 0 0
SMALL
GASTEIGER

@<TRIPOS>ATOM
      1 C          63.7872   91.2108   11.2101 C.ar    1  UNL1       -0.0221
      2 C          64.7391   92.3458   10.9742 C.ar    1  UNL1       -0.0030
      3 C          65.5715   92.8738   12.1047 C.ar    1  UNL1        0.0143
      4 C          65.4521   92.2669   13.4712 C.ar    1  UNL1        0.0495
      5 C          64.5002   91.1319   13.7071 C.ar    1  UNL1        0.0143
      6 C          63.6678   90.6038   12.5765 C.ar    1  UNL1       -0.0030
      7 N          66.2845   92.7949   14.6018 N.pl3   1  UNL1       -0.2930
      8 H          65.8488   93.1454   15.4120 H       1  UNL1        0.1538
      9 C          67.7809   92.7890   14.4979 C.2     1  UNL1        0.2056
     10 N          68.4581   91.9277   13.4734 N.2     1  UNL1       -0.0679
     11 O          69.9546   91.9218   13.3695 O.2     1  UNL1       -0.4077
     12 H          70.3777   91.3838   12.7295 H       1  UNL1        0.3278
     13 C          62.9547   90.6827   10.0795 C.3     1  UNL1        0.0264
     14 C          61.7677   89.8114   10.3654 C.3     1  UNL1        0.0047
     15 C          61.6423   88.4729    9.7002 C.3     1  UNL1        0.0003
     16 C          62.0733   87.2320   10.4246 C.3     1  UNL1        0.0000
     17 C          62.8283   85.6107    8.5402 C.3     1  UNL1        0.0000
     18 C          61.9829   85.8976    9.7455 C.3     1  UNL1        0.0000
@<TRIPOS>BOND
     1    17    18    1
     2    18    16    1
     3    16    15    1
     4    15    14    1
     5    14    13    1
     6    13     1    1
     7     1     2   ar
     8     2     3   ar
     9     3     4   ar
    10     4     7    1
    11     7     9    1
    12     9    10    2
    13    10    11    1
    14     4     5   ar
    15     5     6   ar
    16     6     1   ar
    17     7     8    1
    18    11    12    1
