@<TRIPOS>MOLECULE
*****
 28 30 0 0 0
SMALL
GASTEIGER

@<TRIPOS>ATOM
      1 C          63.3734   90.5172   11.7881 C.ar    1  UNL1        0.1534
      2 C          62.3785   90.7058   10.6816 C.ar    1  UNL1        0.0351
      3 C          61.4928   89.5682   10.2675 C.ar    1  UNL1        0.0722
      4 CL         60.4977   89.7568    9.1609 Cl      1  UNL1       -0.0809
      5 C          61.6021   88.2421   10.9598 C.ar    1  UNL1        0.0577
      6 C          62.5971   88.0535   12.0663 C.ar    1  UNL1        0.0462
      7 C          63.4828   89.1910   12.4805 C.ar    1  UNL1        0.1602
      8 F          64.4778   89.0025   13.5870 F       1  UNL1       -0.2027
      9 O          63.7129   91.5723   13.5968 O.2     1  UNL1       -0.1498
     10 S          64.2592   91.6548   12.2023 S.O2    1  UNL1        0.0772
     11 O          64.8055   91.7372   10.8078 O.2     1  UNL1       -0.1498
     12 N          65.1448   92.7923   12.6165 N.pl3   1  UNL1       -0.1936
     13 H          65.0964   93.6525   12.1402 H       1  UNL1        0.1758
     14 C          66.1044   92.6191   13.7564 C.ar    1  UNL1        0.1786
     15 N          65.9024   93.1062   15.1607 N.ar    1  UNL1       -0.2214
     16 C          67.1075   92.7166   15.9643 C.ar    1  UNL1        0.1079
     17 C          68.0544   91.9887   15.0567 C.ar    1  UNL1        0.0588
     18 S          67.4344   91.9285   13.6921 S.2     1  UNL1       -0.0497
     19 N          60.7164   87.1045   10.5457 N.pl3   1  UNL1       -0.3319
     20 H          59.9063   86.8970   11.0652 H       1  UNL1        0.1468
     21 C          61.0650   86.2831    9.3399 C.3     1  UNL1        0.0870
     22 C          62.4983   86.1323    8.9240 C.3     1  UNL1        0.0213
     23 C          63.1283   84.7717    8.8835 C.3     1  UNL1        0.0043
     24 C          63.4357   84.0494   10.1617 C.3     1  UNL1        0.0322
     25 C          64.3330   82.8560   10.3062 C.3     1  UNL1        0.0346
     26 C          64.3516   82.4626   11.7535 C.3     1  UNL1        0.1422
     27 O          63.4659   83.4129   12.5036 O.3     1  UNL1       -0.3538
     28 C          62.8998   84.3935   11.5197 C.3     1  UNL1        0.1422
@<TRIPOS>BOND
     1     9    10    2
     2    10    11    2
     3    10    12    1
     4    12    14    1
     5    14    15   ar
     6    15    16   ar
     7    16    17   ar
     8    17    18   ar
     9    10     1    1
    10     1     2   ar
    11     2     3   ar
    12     3     4    1
    13     3     5   ar
    14     5    19    1
    15    19    21    1
    16    21    22    1
    17    22    23    1
    18    23    24    1
    19    24    25    1
    20    25    26    1
    21    26    27    1
    22    27    28    1
    23     5     6   ar
    24     6     7   ar
    25     7     8    1
    26    18    14   ar
    27     7     1   ar
    28    28    24    1
    29    12    13    1
    30    19    20    1
@<TRIPOS>MOLECULE
*****
 28 30 0 0 0
SMALL
GASTEIGER

@<TRIPOS>ATOM
      1 C          63.8409   86.7989   15.5733 C.ar    1  UNL1        0.1534
      2 C          64.2213   87.6694   14.4125 C.ar    1  UNL1        0.0351
      3 C          64.0789   89.1591   14.5140 C.ar    1  UNL1        0.0722
      4 CL         64.4592   90.0298   13.3532 Cl      1  UNL1       -0.0809
      5 C          63.5561   89.7783   15.7763 C.ar    1  UNL1        0.0577
      6 C          63.1757   88.9078   16.9370 C.ar    1  UNL1        0.0462
      7 C          63.3181   87.4181   16.8356 C.ar    1  UNL1        0.1602
      8 F          62.9378   86.5474   17.9964 F       1  UNL1       -0.2027
      9 O          65.4173   85.4740   15.0639 O.2     1  UNL1       -0.1498
     10 S          63.9834   85.3090   15.4719 S.O2    1  UNL1        0.0772
     11 O          62.5494   85.1441   15.8798 O.2     1  UNL1       -0.1498
     12 N          64.1258   83.8193   15.3704 N.pl3   1  UNL1       -0.1936
     13 H          64.5763   83.3179   16.0880 H       1  UNL1        0.1758
     14 C          63.5820   83.0935   14.1756 C.ar    1  UNL1        0.1786
     15 N          63.2679   81.6286   14.1015 N.ar    1  UNL1       -0.2214
     16 C          62.7486   81.3349   12.7253 C.ar    1  UNL1        0.1079
     17 C          62.7418   82.6183   11.9487 C.ar    1  UNL1        0.0588
     18 S          63.2569   83.7052   12.8452 S.2     1  UNL1       -0.0497
     19 N          63.4136   91.2682   15.8777 N.pl3   1  UNL1       -0.3319
     20 H          62.5923   91.7070   15.5583 H       1  UNL1        0.1468
     21 C          64.5226   92.0893   16.4658 C.3     1  UNL1        0.0870
     22 C          65.8845   92.0701   15.8373 C.3     1  UNL1        0.0213
     23 C          66.3030   93.1809   14.9203 C.3     1  UNL1        0.0043
     24 C          66.7357   92.8726   13.5176 C.3     1  UNL1        0.0322
     25 C          66.0655   93.3494   12.2632 C.3     1  UNL1        0.0346
     26 C          66.8302   92.8048   11.0933 C.3     1  UNL1        0.1422
     27 O          67.9731   91.9914   11.6247 O.3     1  UNL1       -0.3538
     28 C          67.9147   92.0334   13.1230 C.3     1  UNL1        0.1422
@<TRIPOS>BOND
     1     9    10    2
     2    10    11    2
     3    10    12    1
     4    12    14    1
     5    14    15   ar
     6    15    16   ar
     7    16    17   ar
     8    17    18   ar
     9    10     1    1
    10     1     2   ar
    11     2     3   ar
    12     3     4    1
    13     3     5   ar
    14     5    19    1
    15    19    21    1
    16    21    22    1
    17    22    23    1
    18    23    24    1
    19    24    25    1
    20    25    26    1
    21    26    27    1
    22    27    28    1
    23     5     6   ar
    24     6     7   ar
    25     7     8    1
    26    18    14   ar
    27     7     1   ar
    28    28    24    1
    29    12    13    1
    30    19    20    1
@<TRIPOS>MOLECULE
*****
 28 30 0 0 0
SMALL
GASTEIGER

@<TRIPOS>ATOM
      1 C          64.7052   91.6069   11.9326 C.ar    1  UNL1        0.1534
      2 C          63.7499   91.4657   10.7848 C.ar    1  UNL1        0.0351
      3 C          62.7742   90.3268   10.7568 C.ar    1  UNL1        0.0722
      4 CL         61.8188   90.1856    9.6090 Cl      1  UNL1       -0.0809
      5 C          62.7538   89.3290   11.8767 C.ar    1  UNL1        0.0577
      6 C          63.7091   89.4702   13.0245 C.ar    1  UNL1        0.0462
      7 C          64.6848   90.6091   13.0524 C.ar    1  UNL1        0.1602
      8 F          65.6401   90.7503   14.2002 F       1  UNL1       -0.2027
      9 O          66.1512   92.3768   10.5849 O.2     1  UNL1       -0.1498
     10 S          65.6810   92.7458   11.9606 S.O2    1  UNL1        0.0772
     11 O          65.2108   93.1149   13.3363 O.2     1  UNL1       -0.1498
     12 N          66.6567   93.8847   11.9885 N.pl3   1  UNL1       -0.1936
     13 H          67.2869   93.9747   12.7395 H       1  UNL1        0.1758
     14 C          66.6722   94.8866   10.8722 C.ar    1  UNL1        0.1786
     15 N          67.7081   94.9872    9.7921 N.ar    1  UNL1       -0.2214
     16 C          67.3307   96.1265    8.8924 C.ar    1  UNL1        0.1079
     17 C          66.0615   96.7303    9.4166 C.ar    1  UNL1        0.0588
     18 S          65.6545   95.9639   10.6403 S.2     1  UNL1       -0.0497
     19 N          61.7780   88.1901   11.8487 N.pl3   1  UNL1       -0.3319
     20 H          60.9784   88.2127   12.4225 H       1  UNL1        0.1468
     21 C          62.0206   87.0166   10.9464 C.3     1  UNL1        0.0870
     22 C          62.0734   85.6303   11.5168 C.3     1  UNL1        0.0213
     23 C          63.0117   85.3185   12.6447 C.3     1  UNL1        0.0043
     24 C          63.1053   83.9195   13.1775 C.3     1  UNL1        0.0322
     25 C          63.7528   82.7550   12.4884 C.3     1  UNL1        0.0346
     26 C          63.6155   81.5551   13.3779 C.3     1  UNL1        0.1422
     27 O          62.8831   81.9780   14.6169 O.3     1  UNL1       -0.3538
     28 C          62.5679   83.4393   14.4929 C.3     1  UNL1        0.1422
@<TRIPOS>BOND
     1     9    10    2
     2    10    11    2
     3    10    12    1
     4    12    14    1
     5    14    15   ar
     6    15    16   ar
     7    16    17   ar
     8    17    18   ar
     9    10     1    1
    10     1     2   ar
    11     2     3   ar
    12     3     4    1
    13     3     5   ar
    14     5    19    1
    15    19    21    1
    16    21    22    1
    17    22    23    1
    18    23    24    1
    19    24    25    1
    20    25    26    1
    21    26    27    1
    22    27    28    1
    23     5     6   ar
    24     6     7   ar
    25     7     8    1
    26    18    14   ar
    27     7     1   ar
    28    28    24    1
    29    12    13    1
    30    19    20    1
@<TRIPOS>MOLECULE
*****
 28 30 0 0 0
SMALL
GASTEIGER

@<TRIPOS>ATOM
      1 C          63.8503   86.6655   13.9462 C.ar    1  UNL1        0.1534
      2 C          64.2729   87.8009   14.8307 C.ar    1  UNL1        0.0351
      3 C          64.0900   89.2172   14.3718 C.ar    1  UNL1        0.0722
      4 CL         64.5126   90.3527   15.2562 Cl      1  UNL1       -0.0809
      5 C          63.4846   89.4981   13.0284 C.ar    1  UNL1        0.0577
      6 C          63.0620   88.3627   12.1440 C.ar    1  UNL1        0.0462
      7 C          63.2448   86.9464   12.6029 C.ar    1  UNL1        0.1602
      8 F          62.8222   85.8110   11.7184 F       1  UNL1       -0.2027
      9 O          65.5191   85.3945   14.2614 O.2     1  UNL1       -0.1498
     10 S          64.0331   85.2491   14.4051 S.O2    1  UNL1        0.0772
     11 O          62.5471   85.1038   14.5488 O.2     1  UNL1       -0.1498
     12 N          64.2160   83.8328   14.8639 N.pl3   1  UNL1       -0.1936
     13 H          64.7124   83.6442   15.6929 H       1  UNL1        0.1758
     14 C          63.6425   82.7039   14.0597 C.ar    1  UNL1        0.1786
     15 N          62.7488   81.6167   14.5786 N.ar    1  UNL1       -0.2214
     16 C          62.4160   80.7049   13.4350 C.ar    1  UNL1        0.1079
     17 C          63.1041   81.2285   12.2093 C.ar    1  UNL1        0.0588
     18 S          63.8622   82.4641   12.5954 S.2     1  UNL1       -0.0497
     19 N          63.3017   90.9145   12.5696 N.pl3   1  UNL1       -0.3319
     20 H          62.4695   91.3966   12.7801 H       1  UNL1        0.1468
     21 C          64.3867   91.5963   11.7900 C.3     1  UNL1        0.0870
     22 C          65.4488   92.3760   12.5070 C.3     1  UNL1        0.0213
     23 C          66.1137   93.5369   11.8287 C.3     1  UNL1        0.0043
     24 C          66.9622   93.3096   10.6128 C.3     1  UNL1        0.0322
     25 C          67.9138   92.1693   10.4024 C.3     1  UNL1        0.0346
     26 C          68.5478   92.3375    9.0535 C.3     1  UNL1        0.1422
     27 O          67.9880   93.5818    8.4302 O.3     1  UNL1       -0.3538
     28 C          67.0081   94.1825    9.3939 C.3     1  UNL1        0.1422
@<TRIPOS>BOND
     1     9    10    2
     2    10    11    2
     3    10    12    1
     4    12    14    1
     5    14    15   ar
     6    15    16   ar
     7    16    17   ar
     8    17    18   ar
     9    10     1    1
    10     1     2   ar
    11     2     3   ar
    12     3     4    1
    13     3     5   ar
    14     5    19    1
    15    19    21    1
    16    21    22    1
    17    22    23    1
    18    23    24    1
    19    24    25    1
    20    25    26    1
    21    26    27    1
    22    27    28    1
    23     5     6   ar
    24     6     7   ar
    25     7     8    1
    26    18    14   ar
    27     7     1   ar
    28    28    24    1
    29    12    13    1
    30    19    20    1
@<TRIPOS>MOLECULE
*****
 28 30 0 0 0
SMALL
GASTEIGER

@<TRIPOS>ATOM
      1 C          63.9301   86.8768   14.1308 C.ar    1  UNL1        0.1534
      2 C          64.2316   88.0332   15.0373 C.ar    1  UNL1        0.0351
      3 C          64.0061   89.4377   14.5615 C.ar    1  UNL1        0.0722
      4 CL         64.3076   90.5942   15.4680 Cl      1  UNL1       -0.0809
      5 C          63.4792   89.6858   13.1792 C.ar    1  UNL1        0.0577
      6 C          63.1777   88.5294   12.2727 C.ar    1  UNL1        0.0462
      7 C          63.4032   87.1249   12.7485 C.ar    1  UNL1        0.1602
      8 F          63.1017   85.9683   11.8420 F       1  UNL1       -0.2027
      9 O          65.6384   85.6898   14.5464 O.2     1  UNL1       -0.1498
     10 S          64.1556   85.4722   14.6067 S.O2    1  UNL1        0.0772
     11 O          62.6727   85.2545   14.6669 O.2     1  UNL1       -0.1498
     12 N          64.3811   84.0676   15.0825 N.pl3   1  UNL1       -0.1936
     13 H          64.8678   83.9047   15.9225 H       1  UNL1        0.1758
     14 C          63.8649   82.9113   14.2783 C.ar    1  UNL1        0.1786
     15 N          62.9664   81.8199   14.7796 N.ar    1  UNL1       -0.2214
     16 C          62.7029   80.8775   13.6428 C.ar    1  UNL1        0.1079
     17 C          63.4385   81.3866   12.4387 C.ar    1  UNL1        0.0588
     18 S          64.1567   82.6436   12.8315 S.2     1  UNL1       -0.0497
     19 N          63.2537   91.0904   12.7034 N.pl3   1  UNL1       -0.3319
     20 H          62.5063   91.6189   13.0657 H       1  UNL1        0.1468
     21 C          64.1671   91.6898   11.6755 C.3     1  UNL1        0.0870
     22 C          65.3494   92.5058   12.1074 C.3     1  UNL1        0.0213
     23 C          66.5350   91.8346   12.7348 C.3     1  UNL1        0.0043
     24 C          67.0711   92.3303   14.0450 C.3     1  UNL1        0.0322
     25 C          67.9144   91.5460   15.0061 C.3     1  UNL1        0.0346
     26 C          68.2226   92.4284   16.1793 C.3     1  UNL1        0.1422
     27 O          67.5697   93.7581   15.9433 O.3     1  UNL1       -0.3538
     28 C          66.8581   93.6975   14.6242 C.3     1  UNL1        0.1422
@<TRIPOS>BOND
     1     9    10    2
     2    10    11    2
     3    10    12    1
     4    12    14    1
     5    14    15   ar
     6    15    16   ar
     7    16    17   ar
     8    17    18   ar
     9    10     1    1
    10     1     2   ar
    11     2     3   ar
    12     3     4    1
    13     3     5   ar
    14     5    19    1
    15    19    21    1
    16    21    22    1
    17    22    23    1
    18    23    24    1
    19    24    25    1
    20    25    26    1
    21    26    27    1
    22    27    28    1
    23     5     6   ar
    24     6     7   ar
    25     7     8    1
    26    18    14   ar
    27     7     1   ar
    28    28    24    1
    29    12    13    1
    30    19    20    1
@<TRIPOS>MOLECULE
*****
 28 30 0 0 0
SMALL
GASTEIGER

@<TRIPOS>ATOM
      1 C          64.8435   91.6601   12.1324 C.ar    1  UNL1        0.1534
      2 C          64.9307   90.6880   13.2714 C.ar    1  UNL1        0.0351
      3 C          64.0220   89.4953   13.3107 C.ar    1  UNL1        0.0722
      4 CL         64.1091   88.5231   14.4497 Cl      1  UNL1       -0.0809
      5 C          63.0260   89.2747   12.2109 C.ar    1  UNL1        0.0577
      6 C          62.9388   90.2468   11.0719 C.ar    1  UNL1        0.0462
      7 C          63.8476   91.4395   11.0327 C.ar    1  UNL1        0.1602
      8 F          63.7604   92.4117    9.8936 F       1  UNL1       -0.2027
      9 O          66.1822   92.4796   10.7054 O.2     1  UNL1       -0.1498
     10 S          65.7523   92.8529   12.0931 S.O2    1  UNL1        0.0772
     11 O          65.3224   93.2262   13.4808 O.2     1  UNL1       -0.1498
     12 N          66.6611   94.0456   12.0538 N.pl3   1  UNL1       -0.1936
     13 H          67.2497   94.2414   12.8182 H       1  UNL1        0.1758
     14 C          66.6730   94.9400   10.8496 C.ar    1  UNL1        0.1786
     15 N          67.7277   94.9692    9.7834 N.ar    1  UNL1       -0.2214
     16 C          67.3389   96.0095    8.7751 C.ar    1  UNL1        0.1079
     17 C          66.0438   96.6232    9.2182 C.ar    1  UNL1        0.0588
     18 S          65.6323   95.9622   10.5003 S.2     1  UNL1       -0.0497
     19 N          62.1172   88.0819   12.2502 N.pl3   1  UNL1       -0.3319
     20 H          61.5067   87.9531   13.0118 H       1  UNL1        0.1468
     21 C          62.1387   87.0855   11.1293 C.3     1  UNL1        0.0870
     22 C          62.0760   85.6171   11.4297 C.3     1  UNL1        0.0213
     23 C          63.0487   85.0069   12.3947 C.3     1  UNL1        0.0043
     24 C          62.7806   83.6485   12.9717 C.3     1  UNL1        0.0322
     25 C          62.5945   82.3805   12.1923 C.3     1  UNL1        0.0346
     26 C          62.3503   81.2680   13.1683 C.3     1  UNL1        0.1422
     27 O          62.3854   81.8485   14.5511 O.3     1  UNL1       -0.3538
     28 C          62.6514   83.3197   14.4295 C.3     1  UNL1        0.1422
@<TRIPOS>BOND
     1     9    10    2
     2    10    11    2
     3    10    12    1
     4    12    14    1
     5    14    15   ar
     6    15    16   ar
     7    16    17   ar
     8    17    18   ar
     9    10     1    1
    10     1     2   ar
    11     2     3   ar
    12     3     4    1
    13     3     5   ar
    14     5    19    1
    15    19    21    1
    16    21    22    1
    17    22    23    1
    18    23    24    1
    19    24    25    1
    20    25    26    1
    21    26    27    1
    22    27    28    1
    23     5     6   ar
    24     6     7   ar
    25     7     8    1
    26    18    14   ar
    27     7     1   ar
    28    28    24    1
    29    12    13    1
    30    19    20    1
@<TRIPOS>MOLECULE
*****
 28 30 0 0 0
SMALL
GASTEIGER

@<TRIPOS>ATOM
      1 C          63.7794   90.6963   11.9236 C.ar    1  UNL1        0.1534
      2 C          62.8666   90.7475   10.7345 C.ar    1  UNL1        0.0351
      3 C          62.0386   89.5503   10.3726 C.ar    1  UNL1        0.0722
      4 CL         61.1257   89.6014    9.1834 Cl      1  UNL1       -0.0809
      5 C          62.1235   88.3019   11.1998 C.ar    1  UNL1        0.0577
      6 C          63.0363   88.2507   12.3890 C.ar    1  UNL1        0.0462
      7 C          63.8642   89.4480   12.7509 C.ar    1  UNL1        0.1602
      8 F          64.7771   89.3969   13.9401 F       1  UNL1       -0.2027
      9 O          64.0523   91.8564   13.6785 O.2     1  UNL1       -0.1498
     10 S          64.6075   91.8936   12.2856 S.O2    1  UNL1        0.0772
     11 O          65.1626   91.9309   10.8926 O.2     1  UNL1       -0.1498
     12 N          65.4354   93.0908   12.6476 N.pl3   1  UNL1       -0.1936
     13 H          65.1906   93.9806   12.3045 H       1  UNL1        0.1758
     14 C          66.6365   92.9325   13.5322 C.ar    1  UNL1        0.1786
     15 N          67.8464   92.0972   13.2350 N.ar    1  UNL1       -0.2214
     16 C          68.7961   92.2301   14.3885 C.ar    1  UNL1        0.1079
     17 C          68.1730   93.1475   15.3986 C.ar    1  UNL1        0.0588
     18 S          66.8382   93.5816   14.8694 S.2     1  UNL1       -0.0497
     19 N          61.2954   87.1046   10.8378 N.pl3   1  UNL1       -0.3319
     20 H          60.5919   87.1813   10.1534 H       1  UNL1        0.1468
     21 C          61.5393   85.7905   11.5187 C.3     1  UNL1        0.0870
     22 C          62.6500   84.8977   11.0502 C.3     1  UNL1        0.0213
     23 C          63.4716   84.1362   12.0477 C.3     1  UNL1        0.0043
     24 C          63.3779   84.4697   13.5071 C.3     1  UNL1        0.0322
     25 C          64.2857   85.3969   14.2597 C.3     1  UNL1        0.0346
     26 C          63.8289   85.4348   15.6879 C.3     1  UNL1        0.1422
     27 O          62.6387   84.5311   15.8180 O.3     1  UNL1       -0.3538
     28 C          62.3601   83.9346   14.4702 C.3     1  UNL1        0.1422
@<TRIPOS>BOND
     1     9    10    2
     2    10    11    2
     3    10    12    1
     4    12    14    1
     5    14    15   ar
     6    15    16   ar
     7    16    17   ar
     8    17    18   ar
     9    10     1    1
    10     1     2   ar
    11     2     3   ar
    12     3     4    1
    13     3     5   ar
    14     5    19    1
    15    19    21    1
    16    21    22    1
    17    22    23    1
    18    23    24    1
    19    24    25    1
    20    25    26    1
    21    26    27    1
    22    27    28    1
    23     5     6   ar
    24     6     7   ar
    25     7     8    1
    26    18    14   ar
    27     7     1   ar
    28    28    24    1
    29    12    13    1
    30    19    20    1
@<TRIPOS>MOLECULE
*****
 28 30 0 0 0
SMALL
GASTEIGER

@<TRIPOS>ATOM
      1 C          63.0770   90.2773   12.5809 C.ar    1  UNL1        0.1534
      2 C          61.7320   89.6489   12.7954 C.ar    1  UNL1        0.0351
      3 C          60.7574   89.5570   11.6590 C.ar    1  UNL1        0.0722
      4 CL         59.4123   88.9285   11.8734 Cl      1  UNL1       -0.0809
      5 C          61.1277   90.0934   10.3080 C.ar    1  UNL1        0.0577
      6 C          62.4727   90.7218   10.0935 C.ar    1  UNL1        0.0462
      7 C          63.4474   90.8138   11.2300 C.ar    1  UNL1        0.1602
      8 F          64.7924   91.4422   11.0155 F       1  UNL1       -0.2027
      9 O          63.8835   91.8596   13.7410 O.2     1  UNL1       -0.1498
     10 S          64.0517   90.3693   13.7174 S.O2    1  UNL1        0.0772
     11 O          64.2199   88.8790   13.6939 O.2     1  UNL1       -0.1498
     12 N          65.0264   90.4613   14.8539 N.pl3   1  UNL1       -0.1936
     13 H          64.9426   89.8545   15.6246 H       1  UNL1        0.1758
     14 C          66.1287   91.4779   14.8161 C.ar    1  UNL1        0.1786
     15 N          67.1527   91.6282   13.7303 N.ar    1  UNL1       -0.2214
     16 C          68.0574   92.7659   14.1006 C.ar    1  UNL1        0.1079
     17 C          67.5926   93.3188   15.4153 C.ar    1  UNL1        0.0588
     18 S          66.4006   92.5227   15.8575 S.2     1  UNL1       -0.0497
     19 N          60.1530   90.0014    9.1715 N.pl3   1  UNL1       -0.3319
     20 H          59.5416   90.7503    8.9856 H       1  UNL1        0.1468
     21 C          60.1099   88.7685    8.3184 C.3     1  UNL1        0.0870
     22 C          60.3525   87.4220    8.9334 C.3     1  UNL1        0.0213
     23 C          61.7232   86.8143    8.8918 C.3     1  UNL1        0.0043
     24 C          62.1498   85.8523    9.9606 C.3     1  UNL1        0.0322
     25 C          63.0693   84.6814    9.7770 C.3     1  UNL1        0.0346
     26 C          63.2197   83.9977   11.1036 C.3     1  UNL1        0.1422
     27 O          62.3931   84.7460   12.1071 O.3     1  UNL1       -0.3538
     28 C          61.7319   85.8922   11.4006 C.3     1  UNL1        0.1422
@<TRIPOS>BOND
     1     9    10    2
     2    10    11    2
     3    10    12    1
     4    12    14    1
     5    14    15   ar
     6    15    16   ar
     7    16    17   ar
     8    17    18   ar
     9    10     1    1
    10     1     2   ar
    11     2     3   ar
    12     3     4    1
    13     3     5   ar
    14     5    19    1
    15    19    21    1
    16    21    22    1
    17    22    23    1
    18    23    24    1
    19    24    25    1
    20    25    26    1
    21    26    27    1
    22    27    28    1
    23     5     6   ar
    24     6     7   ar
    25     7     8    1
    26    18    14   ar
    27     7     1   ar
    28    28    24    1
    29    12    13    1
    30    19    20    1
@<TRIPOS>MOLECULE
*****
 28 30 0 0 0
SMALL
GASTEIGER

@<TRIPOS>ATOM
      1 C          63.3242   86.0770   12.9600 C.ar    1  UNL1        0.1534
      2 C          62.4421   86.1407   11.7485 C.ar    1  UNL1        0.0351
      3 C          62.0997   87.4678   11.1389 C.ar    1  UNL1        0.0722
      4 CL         61.2176   87.5314    9.9274 Cl      1  UNL1       -0.0809
      5 C          62.6395   88.7312   11.7409 C.ar    1  UNL1        0.0577
      6 C          63.5216   88.6676   12.9524 C.ar    1  UNL1        0.0462
      7 C          63.8640   87.3405   13.5619 C.ar    1  UNL1        0.1602
      8 F          64.7461   87.2768   14.7735 F       1  UNL1       -0.2027
      9 O          63.0610   85.1906   14.8691 O.2     1  UNL1       -0.1498
     10 S          63.6667   84.7499   13.5695 S.O2    1  UNL1        0.0772
     11 O          64.2723   84.3092   12.2700 O.2     1  UNL1       -0.1498
     12 N          64.0091   83.4228   14.1791 N.pl3   1  UNL1       -0.1936
     13 H          64.8392   83.3191   14.6982 H       1  UNL1        0.1758
     14 C          63.0867   82.2539   13.9979 C.ar    1  UNL1        0.1786
     15 N          61.6640   82.1724   14.4663 N.ar    1  UNL1       -0.2214
     16 C          61.1232   80.8293   14.0744 C.ar    1  UNL1        0.1079
     17 C          62.2116   80.0806   13.3638 C.ar    1  UNL1        0.0588
     18 S          63.4252   80.9611   13.3166 S.2     1  UNL1       -0.0497
     19 N          62.2970   90.0583   11.1313 N.pl3   1  UNL1       -0.3319
     20 H          61.4200   90.4694   11.3076 H       1  UNL1        0.1468
     21 C          63.2909   90.7592   10.2533 C.3     1  UNL1        0.0870
     22 C          64.2863   91.7065   10.8548 C.3     1  UNL1        0.0213
     23 C          64.3127   91.9241   12.3387 C.3     1  UNL1        0.0043
     24 C          65.6234   91.9701   13.0667 C.3     1  UNL1        0.0322
     25 C          65.9296   91.3022   14.3744 C.3     1  UNL1        0.0346
     26 C          67.3535   91.6115   14.7307 C.3     1  UNL1        0.1422
     27 O          67.9273   92.4705   13.6431 O.3     1  UNL1       -0.3538
     28 C          66.8581   92.6921   12.6147 C.3     1  UNL1        0.1422
@<TRIPOS>BOND
     1     9    10    2
     2    10    11    2
     3    10    12    1
     4    12    14    1
     5    14    15   ar
     6    15    16   ar
     7    16    17   ar
     8    17    18   ar
     9    10     1    1
    10     1     2   ar
    11     2     3   ar
    12     3     4    1
    13     3     5   ar
    14     5    19    1
    15    19    21    1
    16    21    22    1
    17    22    23    1
    18    23    24    1
    19    24    25    1
    20    25    26    1
    21    26    27    1
    22    27    28    1
    23     5     6   ar
    24     6     7   ar
    25     7     8    1
    26    18    14   ar
    27     7     1   ar
    28    28    24    1
    29    12    13    1
    30    19    20    1
