@<TRIPOS>MOLECULE
*****
 37 40 0 0 0
SMALL
GASTEIGER

@<TRIPOS>ATOM
      1 C          64.2876   86.9099   15.3665 C.2     1  UNL1       -0.0445
      2 C          63.4082   86.4787   16.5025 C.3     1  UNL1        0.0261
      3 C          64.3230   88.3506   14.9504 C.2     1  UNL1        0.0122
      4 C          65.1316   85.9003   14.6464 C.3     1  UNL1        0.0244
      5 C          64.5224   84.6136   14.1740 C.3     1  UNL1        0.0364
      6 C          62.0708   85.3472   11.2557 C.3     1  UNL1        0.2350
      7 O          62.8919   85.8067   12.4238 O.3     1  UNL1       -0.3306
      8 C          63.5953   84.6112   12.9947 C.3     1  UNL1        0.1428
      9 C          63.2090   83.4129   12.1795 C.3     1  UNL1        0.1202
     10 C          63.0109   82.0604   11.5619 C.3     1  UNL1        0.0322
     11 C          64.1098   82.6753   13.1252 C.3     1  UNL1        0.0322
     12 O          62.2667   83.8678   11.1046 O.3     1  UNL1       -0.3329
     13 C          61.2055   86.2149   10.3904 C.3     1  UNL1        0.0613
     14 C          61.4244   86.2503    8.9070 C.3     1  UNL1        0.0052
     15 C          60.2786   86.5507    7.9867 C.3     1  UNL1        0.0002
     16 C          59.4182   87.7553    8.2286 C.3     1  UNL1        0.0000
     17 C          59.7775   89.0712    7.6045 C.3     1  UNL1        0.0000
     18 C          59.1536   89.4792    6.3029 C.3     1  UNL1        0.0000
     19 C          59.6128   90.7277    5.6099 C.3     1  UNL1        0.0000
     20 C          57.1555   91.3264    5.0155 C.3     1  UNL1        0.0000
     21 C          58.6266   91.5784    4.8658 C.3     1  UNL1        0.0000
     22 C          63.4790   89.3601   15.6705 C.3     1  UNL1        0.2312
     23 O          63.1378   90.6619   15.0079 O.3     1  UNL1       -0.4705
     24 C          64.0196   91.2047   13.9226 C.ar    1  UNL1        0.1449
     25 C          63.5994   91.0903   12.4872 C.ar    1  UNL1        0.0718
     26 C          62.3812   90.4988   11.8422 C.ar    1  UNL1        0.0467
     27 C          62.5101   90.6761   10.3584 C.ar    1  UNL1        0.1797
     28 O          63.8080   91.3771   10.0863 O.2     1  UNL1       -0.4502
     29 C          64.4812   91.6331   11.4020 C.ar    1  UNL1        0.1514
     30 C          65.7833   92.2904   11.7521 C.ar    1  UNL1        0.0753
     31 C          66.2035   92.4048   13.1875 C.ar    1  UNL1        0.1546
     32 O          67.5057   93.0621   13.5376 O.2     1  UNL1       -0.4208
     33 C          67.9259   93.1765   14.9729 C.ar    1  UNL1        0.3459
     34 O          69.2280   93.8338   15.3231 O.2     1  UNL1       -0.2445
     35 C          67.0441   92.6337   16.0583 C.ar    1  UNL1        0.0825
     36 C          65.7421   91.9765   15.7081 C.ar    1  UNL1        0.0127
     37 C          65.3218   91.8620   14.2727 C.ar    1  UNL1        0.0690
@<TRIPOS>BOND
     1    20    21    1
     2    21    19    1
     3    19    18    1
     4    18    17    1
     5    17    16    1
     6    16    15    1
     7    15    14    1
     8    14    13    1
     9    13     6    1
    10     6     7    1
    11     7     8    1
    12     8     5    1
    13     5     4    1
    14     4     1    1
    15     1     2    1
    16     1     3    2
    17     3    22    1
    18    22    23    1
    19    23    24    1
    20    24    25   ar
    21    25    26   ar
    22    26    27   ar
    23    27    28   ar
    24    28    29   ar
    25    29    30   ar
    26    30    31   ar
    27    31    32   ar
    28    32    33   ar
    29    33    34    2
    30    33    35   ar
    31    35    36   ar
    32    36    37   ar
    33     8     9    1
    34     9    10    1
    35     9    11    1
    36     9    12    1
    37    12     6    1
    38    37    24   ar
    39    29    25   ar
    40    37    31   ar
@<TRIPOS>MOLECULE
*****
 37 40 0 0 0
SMALL
GASTEIGER

@<TRIPOS>ATOM
      1 C          62.3520   85.4120    9.1183 C.2     1  UNL1       -0.0445
      2 C          63.0991   85.0469    7.8699 C.3     1  UNL1        0.0261
      3 C          62.7876   84.8574   10.4422 C.2     1  UNL1        0.0122
      4 C          61.1694   86.3316    9.0428 C.3     1  UNL1        0.0244
      5 C          60.7242   87.0825   10.2625 C.3     1  UNL1        0.0364
      6 C          62.4117   90.5750   10.4032 C.3     1  UNL1        0.2350
      7 O          62.4274   89.1273   10.0113 O.3     1  UNL1       -0.3306
      8 C          61.1319   88.5135   10.4525 C.3     1  UNL1        0.1428
      9 C          60.3154   89.5820   11.1173 C.3     1  UNL1        0.1202
     10 C          59.2888   90.4207   11.8190 C.3     1  UNL1        0.0322
     11 C          59.3098   88.4832   11.2945 C.3     1  UNL1        0.0322
     12 O          61.1065   90.8561   11.0868 O.3     1  UNL1       -0.3329
     13 C          63.5088   91.5676   10.1552 C.3     1  UNL1        0.0613
     14 C          64.5446   91.8198   11.2103 C.3     1  UNL1        0.0052
     15 C          65.5493   92.9184   11.0275 C.3     1  UNL1        0.0002
     16 C          66.2822   93.4697   12.2145 C.3     1  UNL1        0.0000
     17 C          67.0086   92.5432   13.1441 C.3     1  UNL1        0.0000
     18 C          66.3644   92.1125   14.4285 C.3     1  UNL1        0.0000
     19 C          65.6078   90.8188   14.4909 C.3     1  UNL1        0.0000
     20 C          63.1124   90.2094   14.1012 C.3     1  UNL1        0.0000
     21 C          64.1847   90.8046   14.9649 C.3     1  UNL1        0.0000
     22 C          63.9702   83.9378   10.5177 C.3     1  UNL1        0.2312
     23 O          64.6094   83.6452   11.8428 O.3     1  UNL1       -0.4705
     24 C          63.7572   83.4789   13.0660 C.ar    1  UNL1        0.1449
     25 C          63.0099   82.1980   13.2911 C.ar    1  UNL1        0.0718
     26 C          62.9205   80.9339   12.4886 C.ar    1  UNL1        0.0467
     27 C          62.0131   79.9864   13.2159 C.ar    1  UNL1        0.1797
     28 O          61.5418   80.6649   14.4678 O.2     1  UNL1       -0.4502
     29 C          62.1578   82.0318   14.5144 C.ar    1  UNL1        0.1514
     30 C          62.0530   83.1465   15.5125 C.ar    1  UNL1        0.0753
     31 C          62.8003   84.4275   15.2874 C.ar    1  UNL1        0.1546
     32 O          62.6955   85.5422   16.2857 O.2     1  UNL1       -0.4208
     33 C          63.4427   86.8232   16.0606 C.ar    1  UNL1        0.3459
     34 O          63.3379   87.9379   17.0588 O.2     1  UNL1       -0.2445
     35 C          64.2949   86.9895   14.8374 C.ar    1  UNL1        0.0825
     36 C          64.3997   85.8747   13.8392 C.ar    1  UNL1        0.0127
     37 C          63.6524   84.5937   14.0643 C.ar    1  UNL1        0.0690
@<TRIPOS>BOND
     1    20    21    1
     2    21    19    1
     3    19    18    1
     4    18    17    1
     5    17    16    1
     6    16    15    1
     7    15    14    1
     8    14    13    1
     9    13     6    1
    10     6     7    1
    11     7     8    1
    12     8     5    1
    13     5     4    1
    14     4     1    1
    15     1     2    1
    16     1     3    2
    17     3    22    1
    18    22    23    1
    19    23    24    1
    20    24    25   ar
    21    25    26   ar
    22    26    27   ar
    23    27    28   ar
    24    28    29   ar
    25    29    30   ar
    26    30    31   ar
    27    31    32   ar
    28    32    33   ar
    29    33    34    2
    30    33    35   ar
    31    35    36   ar
    32    36    37   ar
    33     8     9    1
    34     9    10    1
    35     9    11    1
    36     9    12    1
    37    12     6    1
    38    37    24   ar
    39    29    25   ar
    40    37    31   ar
@<TRIPOS>MOLECULE
*****
 37 40 0 0 0
SMALL
GASTEIGER

@<TRIPOS>ATOM
      1 C          62.5572   85.3901    9.0322 C.2     1  UNL1       -0.0445
      2 C          63.1630   84.8216    7.7833 C.3     1  UNL1        0.0261
      3 C          62.9956   84.8859   10.3752 C.2     1  UNL1        0.0122
      4 C          61.5129   86.4628    8.9382 C.3     1  UNL1        0.0244
      5 C          60.7857   86.9117   10.1709 C.3     1  UNL1        0.0364
      6 C          62.7399   89.4406   12.3736 C.3     1  UNL1        0.2350
      7 O          62.6200   88.1012   11.7089 O.3     1  UNL1       -0.3306
      8 C          61.3126   88.0634   10.9749 C.3     1  UNL1        0.1428
      9 C          60.6242   89.3793   11.1858 C.3     1  UNL1        0.1202
     10 C          59.7117   90.5693   11.2175 C.3     1  UNL1        0.0322
     11 C          59.5513   88.7769   10.3280 C.3     1  UNL1        0.0322
     12 O          61.5064   90.2304   12.0503 O.3     1  UNL1       -0.3329
     13 C          63.8911   89.9080   13.2140 C.3     1  UNL1        0.0613
     14 C          64.4767   91.2710   12.9924 C.3     1  UNL1        0.0052
     15 C          65.7167   91.6833   13.7288 C.3     1  UNL1        0.0002
     16 C          66.7234   92.5738   13.0628 C.3     1  UNL1        0.0000
     17 C          66.3366   93.9613   12.6441 C.3     1  UNL1        0.0000
     18 C          66.0707   94.2619   11.1987 C.3     1  UNL1        0.0000
     19 C          66.4923   93.2865   10.1400 C.3     1  UNL1        0.0000
     20 C          68.8130   92.5177    9.2604 C.3     1  UNL1        0.0000
     21 C          67.7254   93.5486    9.3271 C.3     1  UNL1        0.0000
     22 C          64.0399   83.8132   10.4692 C.3     1  UNL1        0.2312
     23 O          64.6416   83.4668   11.7988 O.3     1  UNL1       -0.4705
     24 C          63.7632   83.3313   13.0072 C.ar    1  UNL1        0.1449
     25 C          62.9843   82.0690   13.2305 C.ar    1  UNL1        0.0718
     26 C          62.8827   80.7990   12.4389 C.ar    1  UNL1        0.0467
     27 C          61.9415   79.8787   13.1580 C.ar    1  UNL1        0.1797
     28 O          61.4613   80.5799   14.3940 O.2     1  UNL1       -0.4502
     29 C          62.1058   81.9337   14.4388 C.ar    1  UNL1        0.1514
     30 C          62.0063   83.0606   15.4238 C.ar    1  UNL1        0.0753
     31 C          62.7852   84.3229   15.2004 C.ar    1  UNL1        0.1546
     32 O          62.6856   85.4498   16.1855 O.2     1  UNL1       -0.4208
     33 C          63.4645   86.7121   15.9621 C.ar    1  UNL1        0.3459
     34 O          63.3650   87.8390   16.9471 O.2     1  UNL1       -0.2445
     35 C          64.3430   86.8475   14.7538 C.ar    1  UNL1        0.0825
     36 C          64.4425   85.7206   13.7689 C.ar    1  UNL1        0.0127
     37 C          63.6636   84.4583   13.9922 C.ar    1  UNL1        0.0690
@<TRIPOS>BOND
     1    20    21    1
     2    21    19    1
     3    19    18    1
     4    18    17    1
     5    17    16    1
     6    16    15    1
     7    15    14    1
     8    14    13    1
     9    13     6    1
    10     6     7    1
    11     7     8    1
    12     8     5    1
    13     5     4    1
    14     4     1    1
    15     1     2    1
    16     1     3    2
    17     3    22    1
    18    22    23    1
    19    23    24    1
    20    24    25   ar
    21    25    26   ar
    22    26    27   ar
    23    27    28   ar
    24    28    29   ar
    25    29    30   ar
    26    30    31   ar
    27    31    32   ar
    28    32    33   ar
    29    33    34    2
    30    33    35   ar
    31    35    36   ar
    32    36    37   ar
    33     8     9    1
    34     9    10    1
    35     9    11    1
    36     9    12    1
    37    12     6    1
    38    37    24   ar
    39    29    25   ar
    40    37    31   ar
@<TRIPOS>MOLECULE
*****
 37 40 0 0 0
SMALL
GASTEIGER

@<TRIPOS>ATOM
      1 C          63.2110   85.6833   15.7420 C.2     1  UNL1       -0.0445
      2 C          62.9662   86.3682   17.0539 C.3     1  UNL1        0.0261
      3 C          63.9317   86.4050   14.6422 C.2     1  UNL1        0.0122
      4 C          62.7352   84.2766   15.5300 C.3     1  UNL1        0.0244
      5 C          63.6599   83.2527   14.9414 C.3     1  UNL1        0.0364
      6 C          63.8708   83.1958   11.0661 C.3     1  UNL1        0.2350
      7 O          64.0962   83.8825   12.3805 O.3     1  UNL1       -0.3306
      8 C          63.6222   82.9663   13.4694 C.3     1  UNL1        0.1428
      9 C          63.1038   81.7134   12.8281 C.3     1  UNL1        0.1202
     10 C          62.5282   80.3721   12.4821 C.3     1  UNL1        0.0322
     11 C          62.8298   81.2911   14.2411 C.3     1  UNL1        0.0322
     12 O          63.2575   81.8552   11.3427 O.3     1  UNL1       -0.3329
     13 C          64.2008   83.7521    9.7127 C.3     1  UNL1        0.0613
     14 C          63.1157   84.3338    8.8560 C.3     1  UNL1        0.0052
     15 C          62.3592   85.5424    9.3218 C.3     1  UNL1        0.0002
     16 C          61.5196   86.3211    8.3529 C.3     1  UNL1        0.0000
     17 C          60.0326   86.3914    8.5369 C.3     1  UNL1        0.0000
     18 C          59.2218   87.3602    7.7281 C.3     1  UNL1        0.0000
     19 C          59.7163   88.7609    7.5193 C.3     1  UNL1        0.0000
     20 C          59.7368   90.3792    5.4869 C.3     1  UNL1        0.0000
     21 C          58.9893   89.6813    6.5842 C.3     1  UNL1        0.0000
     22 C          64.4076   87.8117   14.8541 C.3     1  UNL1        0.2312
     23 O          63.4891   88.9642   14.5750 O.3     1  UNL1       -0.4705
     24 C          63.8501   89.9740   13.5262 C.ar    1  UNL1        0.1449
     25 C          63.2192   89.9023   12.1672 C.ar    1  UNL1        0.0718
     26 C          62.2163   88.9571   11.5749 C.ar    1  UNL1        0.0467
     27 C          61.9577   89.3827   10.1600 C.ar    1  UNL1        0.1797
     28 O          62.8006   90.5909    9.8779 O.2     1  UNL1       -0.4502
     29 C          63.5803   90.9121   11.1184 C.ar    1  UNL1        0.1514
     30 C          64.5724   91.9935   11.4286 C.ar    1  UNL1        0.0753
     31 C          65.2034   92.0652   12.7875 C.ar    1  UNL1        0.1546
     32 O          66.1955   93.1467   13.0976 O.2     1  UNL1       -0.4208
     33 C          66.8265   93.2184   14.4565 C.ar    1  UNL1        0.3459
     34 O          67.8186   94.2999   14.7667 O.2     1  UNL1       -0.2445
     35 C          66.4654   92.2087   15.5054 C.ar    1  UNL1        0.0825
     36 C          65.4733   91.1272   15.1953 C.ar    1  UNL1        0.0127
     37 C          64.8423   91.0555   13.8362 C.ar    1  UNL1        0.0690
@<TRIPOS>BOND
     1    20    21    1
     2    21    19    1
     3    19    18    1
     4    18    17    1
     5    17    16    1
     6    16    15    1
     7    15    14    1
     8    14    13    1
     9    13     6    1
    10     6     7    1
    11     7     8    1
    12     8     5    1
    13     5     4    1
    14     4     1    1
    15     1     2    1
    16     1     3    2
    17     3    22    1
    18    22    23    1
    19    23    24    1
    20    24    25   ar
    21    25    26   ar
    22    26    27   ar
    23    27    28   ar
    24    28    29   ar
    25    29    30   ar
    26    30    31   ar
    27    31    32   ar
    28    32    33   ar
    29    33    34    2
    30    33    35   ar
    31    35    36   ar
    32    36    37   ar
    33     8     9    1
    34     9    10    1
    35     9    11    1
    36     9    12    1
    37    12     6    1
    38    37    24   ar
    39    29    25   ar
    40    37    31   ar
@<TRIPOS>MOLECULE
*****
 37 40 0 0 0
SMALL
GASTEIGER

@<TRIPOS>ATOM
      1 C          60.7241   89.1697   10.8115 C.2     1  UNL1       -0.0445
      2 C          60.0113   90.2146   11.6178 C.3     1  UNL1        0.0261
      3 C          61.9980   89.5128   10.0978 C.2     1  UNL1        0.0122
      4 C          60.1629   87.7817   10.7189 C.3     1  UNL1        0.0244
      5 C          60.3450   86.9813    9.4634 C.3     1  UNL1        0.0364
      6 C          63.2734   84.4829    9.9618 C.3     1  UNL1        0.2350
      7 O          62.2821   85.4660   10.5105 O.3     1  UNL1       -0.3306
      8 C          61.4565   85.9785    9.3680 C.3     1  UNL1        0.1428
      9 C          61.9374   85.3122    8.1131 C.3     1  UNL1        0.1202
     10 C          62.1948   84.8175    6.7206 C.3     1  UNL1        0.0322
     11 C          60.8684   86.1331    7.4549 C.3     1  UNL1        0.0322
     12 O          63.0603   84.3879    8.4801 O.3     1  UNL1       -0.3329
     13 C          64.2978   83.7275   10.7555 C.3     1  UNL1        0.0613
     14 C          64.0382   82.3049   11.1539 C.3     1  UNL1        0.0052
     15 C          62.7103   81.9192   11.7351 C.3     1  UNL1        0.0002
     16 C          62.6499   81.1330   13.0111 C.3     1  UNL1        0.0000
     17 C          62.0378   81.7407   14.2383 C.3     1  UNL1        0.0000
     18 C          62.3970   83.1403   14.6411 C.3     1  UNL1        0.0000
     19 C          63.8099   83.4724   15.0199 C.3     1  UNL1        0.0000
     20 C          64.6871   85.9163   14.9312 C.3     1  UNL1        0.0000
     21 C          64.5430   84.5641   14.2982 C.3     1  UNL1        0.0000
     22 C          62.5591   90.9008   10.1903 C.3     1  UNL1        0.2312
     23 O          64.0443   91.1090   10.2186 O.3     1  UNL1       -0.4705
     24 C          64.6777   91.8382   11.3664 C.ar    1  UNL1        0.1449
     25 C          65.5881   93.0013   11.1054 C.ar    1  UNL1        0.0718
     26 C          66.0445   93.6531    9.8338 C.ar    1  UNL1        0.0467
     27 C          66.9598   94.7849   10.1958 C.ar    1  UNL1        0.1797
     28 O          67.0692   94.8327   11.6910 O.2     1  UNL1       -0.4502
     29 C          66.2214   93.7304   12.2532 C.ar    1  UNL1        0.1514
     30 C          65.9442   93.2962   13.6620 C.ar    1  UNL1        0.0753
     31 C          65.0338   92.1331   13.9230 C.ar    1  UNL1        0.1546
     32 O          64.7567   91.6990   15.3319 O.2     1  UNL1       -0.4208
     33 C          63.8463   90.5358   15.5929 C.ar    1  UNL1        0.3459
     34 O          63.5691   90.1017   17.0017 O.2     1  UNL1       -0.2445
     35 C          63.2129   89.8067   14.4451 C.ar    1  UNL1        0.0825
     36 C          63.4901   90.2408   13.0363 C.ar    1  UNL1        0.0127
     37 C          64.4006   91.4041   12.7753 C.ar    1  UNL1        0.0690
@<TRIPOS>BOND
     1    20    21    1
     2    21    19    1
     3    19    18    1
     4    18    17    1
     5    17    16    1
     6    16    15    1
     7    15    14    1
     8    14    13    1
     9    13     6    1
    10     6     7    1
    11     7     8    1
    12     8     5    1
    13     5     4    1
    14     4     1    1
    15     1     2    1
    16     1     3    2
    17     3    22    1
    18    22    23    1
    19    23    24    1
    20    24    25   ar
    21    25    26   ar
    22    26    27   ar
    23    27    28   ar
    24    28    29   ar
    25    29    30   ar
    26    30    31   ar
    27    31    32   ar
    28    32    33   ar
    29    33    34    2
    30    33    35   ar
    31    35    36   ar
    32    36    37   ar
    33     8     9    1
    34     9    10    1
    35     9    11    1
    36     9    12    1
    37    12     6    1
    38    37    24   ar
    39    29    25   ar
    40    37    31   ar
@<TRIPOS>MOLECULE
*****
 37 40 0 0 0
SMALL
GASTEIGER

@<TRIPOS>ATOM
      1 C          60.4902   89.6587   10.2200 C.2     1  UNL1       -0.0445
      2 C          59.5878   90.2326   11.2718 C.3     1  UNL1        0.0261
      3 C          61.9596   89.9590   10.2474 C.2     1  UNL1        0.0122
      4 C          59.9233   88.7846    9.1410 C.3     1  UNL1        0.0244
      5 C          59.8285   87.3021    9.3492 C.3     1  UNL1        0.0364
      6 C          62.4743   85.6187   11.6363 C.3     1  UNL1        0.2350
      7 O          61.2391   86.4499   11.4537 O.3     1  UNL1       -0.3306
      8 C          60.9675   86.5594    9.9826 C.3     1  UNL1        0.1428
      9 C          62.0347   85.7959    9.2561 C.3     1  UNL1        0.1202
     10 C          62.9472   85.1245    8.2729 C.3     1  UNL1        0.0322
     11 C          61.2942   86.2369    8.0284 C.3     1  UNL1        0.0322
     12 O          62.9660   85.2144   10.2782 O.3     1  UNL1       -0.3329
     13 C          63.1067   85.2554   12.9472 C.3     1  UNL1        0.0613
     14 C          62.2975   84.5645   14.0043 C.3     1  UNL1        0.0052
     15 C          62.7815   83.2736   14.5953 C.3     1  UNL1        0.0002
     16 C          62.0294   82.0017   14.3369 C.3     1  UNL1        0.0000
     17 C          62.7685   80.7645   13.9210 C.3     1  UNL1        0.0000
     18 C          62.7578   80.3315   12.4849 C.3     1  UNL1        0.0000
     19 C          62.5091   81.3373   11.4002 C.3     1  UNL1        0.0000
     20 C          64.7885   82.5799   11.5027 C.3     1  UNL1        0.0000
     21 C          63.6659   81.9890   10.7023 C.3     1  UNL1        0.0000
     22 C          62.5265   90.8332   11.3264 C.3     1  UNL1        0.2312
     23 O          63.7838   90.4278   12.0369 O.3     1  UNL1       -0.4705
     24 C          64.5942   91.4541   12.7718 C.ar    1  UNL1        0.1449
     25 C          64.5529   91.5101   14.2701 C.ar    1  UNL1        0.0718
     26 C          63.8120   90.6910   15.2851 C.ar    1  UNL1        0.0467
     27 C          64.1645   91.2111   16.6471 C.ar    1  UNL1        0.1797
     28 O          65.1233   92.3516   16.4740 O.2     1  UNL1       -0.4502
     29 C          65.3633   92.5365   15.0049 C.ar    1  UNL1        0.1514
     30 C          66.2151   93.5067   14.2413 C.ar    1  UNL1        0.0753
     31 C          66.2564   93.4506   12.7430 C.ar    1  UNL1        0.1546
     32 O          67.1083   94.4210   11.9794 O.2     1  UNL1       -0.4208
     33 C          67.1496   94.3649   10.4810 C.ar    1  UNL1        0.3459
     34 O          68.0014   95.3351    9.7175 O.2     1  UNL1       -0.2445
     35 C          66.3392   93.3386    9.7462 C.ar    1  UNL1        0.0825
     36 C          65.4875   92.3683   10.5097 C.ar    1  UNL1        0.0127
     37 C          65.4461   92.4244   12.0082 C.ar    1  UNL1        0.0690
@<TRIPOS>BOND
     1    20    21    1
     2    21    19    1
     3    19    18    1
     4    18    17    1
     5    17    16    1
     6    16    15    1
     7    15    14    1
     8    14    13    1
     9    13     6    1
    10     6     7    1
    11     7     8    1
    12     8     5    1
    13     5     4    1
    14     4     1    1
    15     1     2    1
    16     1     3    2
    17     3    22    1
    18    22    23    1
    19    23    24    1
    20    24    25   ar
    21    25    26   ar
    22    26    27   ar
    23    27    28   ar
    24    28    29   ar
    25    29    30   ar
    26    30    31   ar
    27    31    32   ar
    28    32    33   ar
    29    33    34    2
    30    33    35   ar
    31    35    36   ar
    32    36    37   ar
    33     8     9    1
    34     9    10    1
    35     9    11    1
    36     9    12    1
    37    12     6    1
    38    37    24   ar
    39    29    25   ar
    40    37    31   ar
@<TRIPOS>MOLECULE
*****
 37 40 0 0 0
SMALL
GASTEIGER

@<TRIPOS>ATOM
      1 C          61.5720   87.9408   11.0085 C.2     1  UNL1       -0.0445
      2 C          60.1468   88.4084   11.0074 C.3     1  UNL1        0.0261
      3 C          62.6738   88.8921   10.6463 C.2     1  UNL1        0.0122
      4 C          61.8955   86.5218   11.3718 C.3     1  UNL1        0.0244
      5 C          63.0737   86.2226   12.2506 C.3     1  UNL1        0.0364
      6 C          62.4818   82.9788   14.2983 C.3     1  UNL1        0.2350
      7 O          62.2995   83.7927   13.0515 O.3     1  UNL1       -0.3306
      8 C          63.0008   85.1041   13.2474 C.3     1  UNL1        0.1428
      9 C          63.6166   85.1007   14.6152 C.3     1  UNL1        0.1202
     10 C          64.3305   85.3842   15.9035 C.3     1  UNL1        0.0322
     11 C          64.0866   86.4734   14.2351 C.3     1  UNL1        0.0322
     12 O          63.2957   83.7872   15.2646 O.3     1  UNL1       -0.3329
     13 C          61.9444   81.5988   14.5367 C.3     1  UNL1        0.0613
     14 C          61.6602   80.6936   13.3750 C.3     1  UNL1        0.0052
     15 C          62.7533   80.3499   12.4070 C.3     1  UNL1        0.0002
     16 C          63.0451   81.2602   11.2511 C.3     1  UNL1        0.0000
     17 C          64.2939   82.0912   11.2475 C.3     1  UNL1        0.0000
     18 C          64.4302   83.2361   10.2880 C.3     1  UNL1        0.0000
     19 C          63.2359   83.7142    9.5165 C.3     1  UNL1        0.0000
     20 C          62.1596   85.5766    8.0594 C.3     1  UNL1        0.0000
     21 C          63.3771   84.8441    8.5401 C.3     1  UNL1        0.0000
     22 C          62.3503   90.3110   10.2830 C.3     1  UNL1        0.2312
     23 O          62.5113   91.4011   11.3007 O.3     1  UNL1       -0.4705
     24 C          63.7822   91.5080   12.0905 C.ar    1  UNL1        0.1449
     25 C          63.8790   90.8716   13.4454 C.ar    1  UNL1        0.0718
     26 C          62.8948   90.0811   14.2556 C.ar    1  UNL1        0.0467
     27 C          63.5574   89.6994   15.5460 C.ar    1  UNL1        0.1797
     28 O          64.9511   90.2540   15.5334 O.2     1  UNL1       -0.4502
     29 C          65.1498   90.9785   14.2350 C.ar    1  UNL1        0.1514
     30 C          66.3238   91.7218   13.6699 C.ar    1  UNL1        0.0753
     31 C          66.2269   92.3581   12.3150 C.ar    1  UNL1        0.1546
     32 O          67.4010   93.1013   11.7499 O.2     1  UNL1       -0.4208
     33 C          67.3041   93.7377   10.3950 C.ar    1  UNL1        0.3459
     34 O          68.4781   94.4809    9.8298 O.2     1  UNL1       -0.2445
     35 C          66.0333   93.6308    9.6052 C.ar    1  UNL1        0.0825
     36 C          64.8594   92.8876   10.1704 C.ar    1  UNL1        0.0127
     37 C          64.9562   92.2512   11.5253 C.ar    1  UNL1        0.0690
@<TRIPOS>BOND
     1    20    21    1
     2    21    19    1
     3    19    18    1
     4    18    17    1
     5    17    16    1
     6    16    15    1
     7    15    14    1
     8    14    13    1
     9    13     6    1
    10     6     7    1
    11     7     8    1
    12     8     5    1
    13     5     4    1
    14     4     1    1
    15     1     2    1
    16     1     3    2
    17     3    22    1
    18    22    23    1
    19    23    24    1
    20    24    25   ar
    21    25    26   ar
    22    26    27   ar
    23    27    28   ar
    24    28    29   ar
    25    29    30   ar
    26    30    31   ar
    27    31    32   ar
    28    32    33   ar
    29    33    34    2
    30    33    35   ar
    31    35    36   ar
    32    36    37   ar
    33     8     9    1
    34     9    10    1
    35     9    11    1
    36     9    12    1
    37    12     6    1
    38    37    24   ar
    39    29    25   ar
    40    37    31   ar
@<TRIPOS>MOLECULE
*****
 37 40 0 0 0
SMALL
GASTEIGER

@<TRIPOS>ATOM
      1 C          63.6890   85.5275   14.0732 C.2     1  UNL1       -0.0445
      2 C          64.7074   85.1491   15.1075 C.3     1  UNL1        0.0261
      3 C          63.5388   86.9610   13.6579 C.2     1  UNL1        0.0122
      4 C          62.8208   84.4724   13.4543 C.3     1  UNL1        0.0244
      5 C          62.9757   84.1306   12.0020 C.3     1  UNL1        0.0364
      6 C          60.9610   86.6605    9.8559 C.3     1  UNL1        0.2350
      7 O          61.2544   85.9984   11.1695 O.3     1  UNL1       -0.3306
      8 C          62.3652   85.0137   10.9545 C.3     1  UNL1        0.1428
      9 C          62.7584   85.0671    9.5079 C.3     1  UNL1        0.1202
     10 C          63.3593   84.9005    8.1437 C.3     1  UNL1        0.0322
     11 C          63.7519   84.0145    9.9017 C.3     1  UNL1        0.0322
     12 O          61.8906   86.0849    8.8290 O.3     1  UNL1       -0.3329
     13 C          59.9207   87.7133    9.6120 C.3     1  UNL1        0.0613
     14 C          58.9514   87.5612    8.4776 C.3     1  UNL1        0.0052
     15 C          59.2741   88.1411    7.1324 C.3     1  UNL1        0.0002
     16 C          59.5301   89.6124    6.9918 C.3     1  UNL1        0.0000
     17 C          58.9052   90.3780    5.8633 C.3     1  UNL1        0.0000
     18 C          59.7735   91.0433    4.8369 C.3     1  UNL1        0.0000
     19 C          59.3260   92.3209    4.1906 C.3     1  UNL1        0.0000
     20 C          60.3659   94.0596    2.5641 C.3     1  UNL1        0.0000
     21 C          59.8253   92.6847    2.8237 C.3     1  UNL1        0.0000
     22 C          64.4070   88.0161   14.2768 C.3     1  UNL1        0.2312
     23 O          63.9065   89.4252   14.3945 O.3     1  UNL1       -0.4705
     24 C          64.4284   90.4860   13.4713 C.ar    1  UNL1        0.1449
     25 C          63.7728   90.7115   12.1411 C.ar    1  UNL1        0.0718
     26 C          62.6050   90.0487   11.4725 C.ar    1  UNL1        0.0467
     27 C          62.4052   90.7000   10.1361 C.ar    1  UNL1        0.1797
     28 O          63.4495   91.7652    9.9788 O.2     1  UNL1       -0.4502
     29 C          64.2948   91.7723   11.2179 C.ar    1  UNL1        0.1514
     30 C          65.4723   92.6076   11.6249 C.ar    1  UNL1        0.0753
     31 C          66.1278   92.3821   12.9551 C.ar    1  UNL1        0.1546
     32 O          67.3054   93.2175   13.3620 O.2     1  UNL1       -0.4208
     33 C          67.9610   92.9920   14.6922 C.ar    1  UNL1        0.3459
     34 O          69.1385   93.8274   15.0992 O.2     1  UNL1       -0.2445
     35 C          67.4391   91.9312   15.6155 C.ar    1  UNL1        0.0825
     36 C          66.2615   91.0959   15.2085 C.ar    1  UNL1        0.0127
     37 C          65.6059   91.3214   13.8782 C.ar    1  UNL1        0.0690
@<TRIPOS>BOND
     1    20    21    1
     2    21    19    1
     3    19    18    1
     4    18    17    1
     5    17    16    1
     6    16    15    1
     7    15    14    1
     8    14    13    1
     9    13     6    1
    10     6     7    1
    11     7     8    1
    12     8     5    1
    13     5     4    1
    14     4     1    1
    15     1     2    1
    16     1     3    2
    17     3    22    1
    18    22    23    1
    19    23    24    1
    20    24    25   ar
    21    25    26   ar
    22    26    27   ar
    23    27    28   ar
    24    28    29   ar
    25    29    30   ar
    26    30    31   ar
    27    31    32   ar
    28    32    33   ar
    29    33    34    2
    30    33    35   ar
    31    35    36   ar
    32    36    37   ar
    33     8     9    1
    34     9    10    1
    35     9    11    1
    36     9    12    1
    37    12     6    1
    38    37    24   ar
    39    29    25   ar
    40    37    31   ar
@<TRIPOS>MOLECULE
*****
 37 40 0 0 0
SMALL
GASTEIGER

@<TRIPOS>ATOM
      1 C          60.8805   86.7867   10.1914 C.2     1  UNL1       -0.0445
      2 C          60.6539   86.4988    8.7369 C.3     1  UNL1        0.0261
      3 C          61.9262   86.0267   10.9523 C.2     1  UNL1        0.0122
      4 C          60.0615   87.8346   10.8850 C.3     1  UNL1        0.0244
      5 C          60.4464   89.2803   10.7774 C.3     1  UNL1        0.0364
      6 C          63.1262   90.2695   13.4052 C.3     1  UNL1        0.2350
      7 O          61.8680   89.5467   13.0253 O.3     1  UNL1       -0.3306
      8 C          61.6029   89.8097   11.5726 C.3     1  UNL1        0.1428
      9 C          62.6973   90.6952   11.0547 C.3     1  UNL1        0.1202
     10 C          63.6359   91.5590   10.2654 C.3     1  UNL1        0.0322
     11 C          61.9520   90.5916    9.7570 C.3     1  UNL1        0.0322
     12 O          63.6388   90.9793   12.1873 O.3     1  UNL1       -0.3329
     13 C          63.7606   90.2805   14.7645 C.3     1  UNL1        0.0613
     14 C          65.1571   90.8003   14.9362 C.3     1  UNL1        0.0052
     15 C          65.4079   92.0100   15.7869 C.3     1  UNL1        0.0002
     16 C          66.7639   92.6512   15.7978 C.3     1  UNL1        0.0000
     17 C          67.3642   93.1578   14.5199 C.3     1  UNL1        0.0000
     18 C          66.8405   92.6721   13.2009 C.3     1  UNL1        0.0000
     19 C          66.0988   93.6114   12.2967 C.3     1  UNL1        0.0000
     20 C          67.3592   92.7341   10.2011 C.3     1  UNL1        0.0000
     21 C          66.5495   93.7997   10.8785 C.3     1  UNL1        0.0000
     22 C          62.7452   84.9788   10.2587 C.3     1  UNL1        0.2312
     23 O          63.7961   84.2242   11.0177 O.3     1  UNL1       -0.4705
     24 C          63.3947   83.2149   12.0522 C.ar    1  UNL1        0.1449
     25 C          63.2183   83.6350   13.4813 C.ar    1  UNL1        0.0718
     26 C          63.3691   84.9626   14.1630 C.ar    1  UNL1        0.0467
     27 C          63.0608   84.7736   15.6188 C.ar    1  UNL1        0.1797
     28 O          62.7195   83.3293   15.8368 O.2     1  UNL1       -0.4502
     29 C          62.8168   82.6256   14.5157 C.ar    1  UNL1        0.1514
     30 C          62.5917   81.1961   14.1210 C.ar    1  UNL1        0.0753
     31 C          62.7681   80.7760   12.6919 C.ar    1  UNL1        0.1546
     32 O          62.5430   79.3464   12.2972 O.2     1  UNL1       -0.4208
     33 C          62.7194   78.9262   10.8681 C.ar    1  UNL1        0.3459
     34 O          62.4943   77.4967   10.4734 O.2     1  UNL1       -0.2445
     35 C          63.1209   79.9356    9.8336 C.ar    1  UNL1        0.0825
     36 C          63.3460   81.3651   10.2283 C.ar    1  UNL1        0.0127
     37 C          63.1696   81.7853   11.6575 C.ar    1  UNL1        0.0690
@<TRIPOS>BOND
     1    20    21    1
     2    21    19    1
     3    19    18    1
     4    18    17    1
     5    17    16    1
     6    16    15    1
     7    15    14    1
     8    14    13    1
     9    13     6    1
    10     6     7    1
    11     7     8    1
    12     8     5    1
    13     5     4    1
    14     4     1    1
    15     1     2    1
    16     1     3    2
    17     3    22    1
    18    22    23    1
    19    23    24    1
    20    24    25   ar
    21    25    26   ar
    22    26    27   ar
    23    27    28   ar
    24    28    29   ar
    25    29    30   ar
    26    30    31   ar
    27    31    32   ar
    28    32    33   ar
    29    33    34    2
    30    33    35   ar
    31    35    36   ar
    32    36    37   ar
    33     8     9    1
    34     9    10    1
    35     9    11    1
    36     9    12    1
    37    12     6    1
    38    37    24   ar
    39    29    25   ar
    40    37    31   ar
