@<TRIPOS>MOLECULE
*****
 24 27 0 0 0
SMALL
GASTEIGER

@<TRIPOS>ATOM
      1 N          64.2310   90.9864   13.7232 N.ar    1  UNL1       -0.3087
      2 C          65.3989   91.7341   13.1513 C.ar    1  UNL1        0.1493
      3 N          65.1539   91.9238   11.6836 N.ar    1  UNL1       -0.2284
      4 C          63.8347   91.2934   11.3485 C.ar    1  UNL1        0.0984
      5 C          63.0791   91.1720   10.0585 C.ar    1  UNL1        0.0206
      6 C          61.7532   90.4713   10.0290 C.ar    1  UNL1        0.0016
      7 C          61.1828   89.8920   11.2895 C.ar    1  UNL1        0.0016
      8 C          61.9384   90.0134   12.5796 C.ar    1  UNL1        0.0188
      9 C          63.2643   90.7141   12.6091 C.ar    1  UNL1        0.0789
     10 C          66.6006   92.2087   13.9132 C.3     1  UNL1        0.1869
     11 C          67.9780   91.8441   13.4443 C.3     1  UNL1        0.1064
     12 N          69.1798   92.3187   14.2062 N.3     1  UNL1       -0.2930
     13 C          69.0042   93.1580   15.4369 C.3     1  UNL1        0.1011
     14 C          67.6268   93.5227   15.9057 C.3     1  UNL1        0.1597
     15 O          66.4250   93.0480   15.1439 O.3     1  UNL1       -0.3458
     16 H          69.7442   92.8649   13.5554 H       1  UNL1        0.1234
     17 C          64.0599   90.5821   15.1576 C.3     1  UNL1        0.1340
     18 C          63.2776   84.8043   16.5731 C.3     1  UNL1        0.0310
     19 C          63.4732   86.2487   16.2193 C.ar    1  UNL1       -0.0219
     20 C          64.2331   86.6212   14.9807 C.ar    1  UNL1       -0.0045
     21 C          64.4286   88.0657   14.6269 C.ar    1  UNL1       -0.0027
     22 C          63.8643   89.1377   15.5115 C.ar    1  UNL1        0.0004
     23 C          63.1045   88.7652   16.7500 C.ar    1  UNL1       -0.0027
     24 C          62.9089   87.3207   17.1038 C.ar    1  UNL1       -0.0045
@<TRIPOS>BOND
     1    18    19    1
     2    19    20   ar
     3    20    21   ar
     4    21    22   ar
     5    22    17    1
     6    17     1    1
     7     1     2   ar
     8    10     2    1
     9    10    11    1
    10    11    12    1
    11    12    13    1
    12    13    14    1
    13    14    15    1
    14     2     3   ar
    15     3     4   ar
    16     4     5   ar
    17     5     6   ar
    18     6     7   ar
    19     7     8   ar
    20     8     9   ar
    21    22    23   ar
    22    23    24   ar
    23    24    19   ar
    24     9     1   ar
    25    15    10    1
    26     9     4   ar
    27    12    16    1
@<TRIPOS>MOLECULE
*****
 24 27 0 0 0
SMALL
GASTEIGER

@<TRIPOS>ATOM
      1 N          62.1562   87.1038   11.7416 N.ar    1  UNL1       -0.3087
      2 C          63.0337   86.5284   12.8134 C.ar    1  UNL1        0.1493
      3 N          63.9080   87.6291   13.3371 N.ar    1  UNL1       -0.2284
      4 C          63.5707   88.8847   12.5890 C.ar    1  UNL1        0.0984
      5 C          64.1096   90.2816   12.6782 C.ar    1  UNL1        0.0206
      6 C          63.5659   91.3540   11.7814 C.ar    1  UNL1        0.0016
      7 C          62.4832   91.0293   10.7953 C.ar    1  UNL1        0.0016
      8 C          61.9443   89.6324   10.7060 C.ar    1  UNL1        0.0188
      9 C          62.4881   88.5600   11.6028 C.ar    1  UNL1        0.0789
     10 C          63.0365   85.1027   13.2797 C.3     1  UNL1        0.1869
     11 C          63.7934   84.0627   12.5080 C.3     1  UNL1        0.1064
     12 N          63.7962   82.6370   12.9743 N.3     1  UNL1       -0.2930
     13 C          63.0421   82.2513   14.2122 C.3     1  UNL1        0.1011
     14 C          62.2853   83.2913   14.9839 C.3     1  UNL1        0.1597
     15 O          62.2825   84.7170   14.5176 O.3     1  UNL1       -0.3458
     16 H          64.7708   82.3805   13.1312 H       1  UNL1        0.1234
     17 C          61.1274   86.3545   10.9478 C.3     1  UNL1        0.1340
     18 C          62.4137   84.4550    5.4037 C.3     1  UNL1        0.0310
     19 C          62.0922   84.9299    6.7898 C.ar    1  UNL1       -0.0219
     20 C          60.7494   85.5301    7.0842 C.ar    1  UNL1       -0.0045
     21 C          60.4278   86.0050    8.4702 C.ar    1  UNL1       -0.0027
     22 C          61.4490   85.8796    9.5619 C.ar    1  UNL1        0.0004
     23 C          62.7917   85.2794    9.2673 C.ar    1  UNL1       -0.0027
     24 C          63.1133   84.8045    7.8813 C.ar    1  UNL1       -0.0045
@<TRIPOS>BOND
     1    18    19    1
     2    19    20   ar
     3    20    21   ar
     4    21    22   ar
     5    22    17    1
     6    17     1    1
     7     1     2   ar
     8    10     2    1
     9    10    11    1
    10    11    12    1
    11    12    13    1
    12    13    14    1
    13    14    15    1
    14     2     3   ar
    15     3     4   ar
    16     4     5   ar
    17     5     6   ar
    18     6     7   ar
    19     7     8   ar
    20     8     9   ar
    21    22    23   ar
    22    23    24   ar
    23    24    19   ar
    24     9     1   ar
    25    15    10    1
    26     9     4   ar
    27    12    16    1
@<TRIPOS>MOLECULE
*****
 24 27 0 0 0
SMALL
GASTEIGER

@<TRIPOS>ATOM
      1 N          61.5554   87.9645   11.0782 N.ar    1  UNL1       -0.3087
      2 C          62.1732   86.6229   11.3400 C.ar    1  UNL1        0.1493
      3 N          61.8133   85.7166   10.2003 N.ar    1  UNL1       -0.2284
      4 C          60.9730   86.4980    9.2342 C.ar    1  UNL1        0.0984
      5 C          60.3324   86.1239    7.9305 C.ar    1  UNL1        0.0206
      6 C          59.5324   87.1391    7.1694 C.ar    1  UNL1        0.0016
      7 C          59.3730   88.5284    7.7120 C.ar    1  UNL1        0.0016
      8 C          60.0136   88.9025    9.0157 C.ar    1  UNL1        0.0188
      9 C          60.8136   87.8873    9.7768 C.ar    1  UNL1        0.0789
     10 C          63.0050   86.2527   12.5321 C.3     1  UNL1        0.1869
     11 C          63.2324   84.8088   12.8688 C.3     1  UNL1        0.1064
     12 N          64.0641   84.4386   14.0609 N.3     1  UNL1       -0.2930
     13 C          64.6684   85.5123   14.9164 C.3     1  UNL1        0.1011
     14 C          64.4410   86.9562   14.5797 C.3     1  UNL1        0.1597
     15 O          63.6093   87.3264   13.3876 O.3     1  UNL1       -0.3458
     16 H          64.8359   83.8679   13.7157 H       1  UNL1        0.1234
     17 C          61.6608   89.1714   11.9627 C.3     1  UNL1        0.1340
     18 C          65.9186   93.2744   10.9444 C.3     1  UNL1        0.0310
     19 C          64.8541   92.2486   11.1990 C.ar    1  UNL1       -0.0219
     20 C          63.9623   91.7995   10.0796 C.ar    1  UNL1       -0.0045
     21 C          62.8979   90.7738   10.3342 C.ar    1  UNL1       -0.0027
     22 C          62.7252   90.1971   11.7082 C.ar    1  UNL1        0.0004
     23 C          63.6170   90.6462   12.8275 C.ar    1  UNL1       -0.0027
     24 C          64.6815   91.6720   12.5729 C.ar    1  UNL1       -0.0045
@<TRIPOS>BOND
     1    18    19    1
     2    19    20   ar
     3    20    21   ar
     4    21    22   ar
     5    22    17    1
     6    17     1    1
     7     1     2   ar
     8    10     2    1
     9    10    11    1
    10    11    12    1
    11    12    13    1
    12    13    14    1
    13    14    15    1
    14     2     3   ar
    15     3     4   ar
    16     4     5   ar
    17     5     6   ar
    18     6     7   ar
    19     7     8   ar
    20     8     9   ar
    21    22    23   ar
    22    23    24   ar
    23    24    19   ar
    24     9     1   ar
    25    15    10    1
    26     9     4   ar
    27    12    16    1
@<TRIPOS>MOLECULE
*****
 24 27 0 0 0
SMALL
GASTEIGER

@<TRIPOS>ATOM
      1 N          63.0993   84.0937   13.0193 N.ar    1  UNL1       -0.3087
      2 C          62.8574   84.0815   14.4996 C.ar    1  UNL1        0.1493
      3 N          62.5913   82.6646   14.9140 N.ar    1  UNL1       -0.2284
      4 C          62.6688   81.8012   13.6899 C.ar    1  UNL1        0.0984
      5 C          62.4940   80.3249   13.4903 C.ar    1  UNL1        0.0206
      6 C          62.6332   79.7318   12.1196 C.ar    1  UNL1        0.0016
      7 C          62.9472   80.6150   10.9485 C.ar    1  UNL1        0.0016
      8 C          63.1219   82.0913   11.1482 C.ar    1  UNL1        0.0188
      9 C          62.9828   82.6844   12.5188 C.ar    1  UNL1        0.0789
     10 C          62.8779   85.2763   15.4062 C.3     1  UNL1        0.1869
     11 C          62.0562   85.2798   16.6611 C.3     1  UNL1        0.1064
     12 N          62.0767   86.4746   17.5677 N.3     1  UNL1       -0.2930
     13 C          62.9190   87.6659   17.2195 C.3     1  UNL1        0.1011
     14 C          63.7407   87.6624   15.9646 C.3     1  UNL1        0.1597
     15 O          63.7202   86.4676   15.0580 O.3     1  UNL1       -0.3458
     16 H          62.3936   86.1465   18.4800 H       1  UNL1        0.1234
     17 C          63.4042   85.3029   12.1857 C.3     1  UNL1        0.1340
     18 C          59.7471   86.8449    7.6860 C.3     1  UNL1        0.0310
     19 C          60.6614   86.4594    8.8109 C.ar    1  UNL1       -0.0219
     20 C          60.3571   86.9043   10.2107 C.ar    1  UNL1       -0.0045
     21 C          61.2714   86.5187   11.3356 C.ar    1  UNL1       -0.0027
     22 C          62.4900   85.6883   11.0608 C.ar    1  UNL1        0.0004
     23 C          62.7943   85.2435    9.6609 C.ar    1  UNL1       -0.0027
     24 C          61.8800   85.6291    8.5360 C.ar    1  UNL1       -0.0045
@<TRIPOS>BOND
     1    18    19    1
     2    19    20   ar
     3    20    21   ar
     4    21    22   ar
     5    22    17    1
     6    17     1    1
     7     1     2   ar
     8    10     2    1
     9    10    11    1
    10    11    12    1
    11    12    13    1
    12    13    14    1
    13    14    15    1
    14     2     3   ar
    15     3     4   ar
    16     4     5   ar
    17     5     6   ar
    18     6     7   ar
    19     7     8   ar
    20     8     9   ar
    21    22    23   ar
    22    23    24   ar
    23    24    19   ar
    24     9     1   ar
    25    15    10    1
    26     9     4   ar
    27    12    16    1
@<TRIPOS>MOLECULE
*****
 24 27 0 0 0
SMALL
GASTEIGER

@<TRIPOS>ATOM
      1 N          63.1310   84.0427   13.0520 N.ar    1  UNL1       -0.3087
      2 C          62.8933   84.0711   14.5327 C.ar    1  UNL1        0.1493
      3 N          62.5995   82.6704   14.9819 N.ar    1  UNL1       -0.2284
      4 C          62.6556   81.7763   13.7787 C.ar    1  UNL1        0.0984
      5 C          62.4500   80.2996   13.6152 C.ar    1  UNL1        0.0206
      6 C          62.5729   79.6709   12.2589 C.ar    1  UNL1        0.0016
      7 C          62.9014   80.5191   11.0661 C.ar    1  UNL1        0.0016
      8 C          63.1070   81.9958   11.2296 C.ar    1  UNL1        0.0188
      9 C          62.9841   82.6245   12.5860 C.ar    1  UNL1        0.0789
     10 C          62.9411   85.2867   15.4103 C.3     1  UNL1        0.1869
     11 C          63.7654   86.4724   15.0048 C.3     1  UNL1        0.1064
     12 N          63.8132   87.6880   15.8823 N.3     1  UNL1       -0.2930
     13 C          63.0366   87.7179   17.1653 C.3     1  UNL1        0.1011
     14 C          62.2123   86.5321   17.5707 C.3     1  UNL1        0.1597
     15 O          62.1646   85.3165   16.6932 O.3     1  UNL1       -0.3458
     16 H          63.4814   88.4710   15.3191 H       1  UNL1        0.1234
     17 C          63.4582   85.2249   12.1887 C.3     1  UNL1        0.1340
     18 C          59.8126   86.7419    7.6712 C.3     1  UNL1        0.0310
     19 C          60.7240   86.3627    8.8006 C.ar    1  UNL1       -0.0219
     20 C          61.9518   85.5441    8.5310 C.ar    1  UNL1       -0.0045
     21 C          62.8631   85.1649    9.6604 C.ar    1  UNL1       -0.0027
     22 C          62.5468   85.6042   11.0594 C.ar    1  UNL1        0.0004
     23 C          61.3191   86.4227   11.3289 C.ar    1  UNL1       -0.0027
     24 C          60.4077   86.8020   10.1995 C.ar    1  UNL1       -0.0045
@<TRIPOS>BOND
     1    18    19    1
     2    19    20   ar
     3    20    21   ar
     4    21    22   ar
     5    22    17    1
     6    17     1    1
     7     1     2   ar
     8    10     2    1
     9    10    11    1
    10    11    12    1
    11    12    13    1
    12    13    14    1
    13    14    15    1
    14     2     3   ar
    15     3     4   ar
    16     4     5   ar
    17     5     6   ar
    18     6     7   ar
    19     7     8   ar
    20     8     9   ar
    21    22    23   ar
    22    23    24   ar
    23    24    19   ar
    24     9     1   ar
    25    15    10    1
    26     9     4   ar
    27    12    16    1
@<TRIPOS>MOLECULE
*****
 24 27 0 0 0
SMALL
GASTEIGER

@<TRIPOS>ATOM
      1 N          62.7005   85.7473   12.2266 N.ar    1  UNL1       -0.3087
      2 C          63.5677   86.4791   13.2076 C.ar    1  UNL1        0.1493
      3 N          64.2984   85.4599   14.0307 N.ar    1  UNL1       -0.2284
      4 C          63.8828   84.0982   13.5583 C.ar    1  UNL1        0.0984
      5 C          64.2759   82.7196   13.9994 C.ar    1  UNL1        0.0206
      6 C          63.6816   81.5185   13.3255 C.ar    1  UNL1        0.0016
      7 C          62.6941   81.6961   12.2105 C.ar    1  UNL1        0.0016
      8 C          62.3009   83.0748   11.7694 C.ar    1  UNL1        0.0188
      9 C          62.8952   84.2758   12.4433 C.ar    1  UNL1        0.0789
     10 C          63.6839   87.9686   13.3420 C.3     1  UNL1        0.1869
     11 C          64.3545   88.5630   14.5448 C.3     1  UNL1        0.1064
     12 N          64.4706   90.0525   14.6792 N.3     1  UNL1       -0.2930
     13 C          63.9161   90.9474   13.6108 C.3     1  UNL1        0.1011
     14 C          63.2455   90.3529   12.4080 C.3     1  UNL1        0.1597
     15 O          63.1293   88.8635   12.2736 O.3     1  UNL1       -0.3458
     16 H          65.4655   90.2647   14.7540 H       1  UNL1        0.1234
     17 C          61.7972   86.3764   11.2076 C.3     1  UNL1        0.1340
     18 C          61.8952   84.4625    5.5220 C.3     1  UNL1        0.0310
     19 C          61.8707   84.9410    6.9434 C.ar    1  UNL1       -0.0219
     20 C          60.6444   85.6116    7.4880 C.ar    1  UNL1       -0.0045
     21 C          60.6200   86.0901    8.9094 C.ar    1  UNL1       -0.0027
     22 C          61.8218   85.8980    9.7863 C.ar    1  UNL1        0.0004
     23 C          63.0480   85.2273    9.2416 C.ar    1  UNL1       -0.0027
     24 C          63.0725   84.7489    7.8202 C.ar    1  UNL1       -0.0045
@<TRIPOS>BOND
     1    18    19    1
     2    19    20   ar
     3    20    21   ar
     4    21    22   ar
     5    22    17    1
     6    17     1    1
     7     1     2   ar
     8    10     2    1
     9    10    11    1
    10    11    12    1
    11    12    13    1
    12    13    14    1
    13    14    15    1
    14     2     3   ar
    15     3     4   ar
    16     4     5   ar
    17     5     6   ar
    18     6     7   ar
    19     7     8   ar
    20     8     9   ar
    21    22    23   ar
    22    23    24   ar
    23    24    19   ar
    24     9     1   ar
    25    15    10    1
    26     9     4   ar
    27    12    16    1
@<TRIPOS>MOLECULE
*****
 24 27 0 0 0
SMALL
GASTEIGER

@<TRIPOS>ATOM
      1 N          63.3358   84.3230   12.0473 N.ar    1  UNL1       -0.3087
      2 C          63.3269   85.0895   13.3366 C.ar    1  UNL1        0.1493
      3 N          63.0122   84.1288   14.4448 N.ar    1  UNL1       -0.2284
      4 C          62.8265   82.7686   13.8404 C.ar    1  UNL1        0.0984
      5 C          62.5011   81.4363   14.4478 C.ar    1  UNL1        0.0206
      6 C          62.3758   80.2239   13.5735 C.ar    1  UNL1        0.0016
      7 C          62.5759   80.3439   12.0917 C.ar    1  UNL1        0.0016
      8 C          62.9012   81.6763   11.4843 C.ar    1  UNL1        0.0188
      9 C          63.0265   82.8886   12.3586 C.ar    1  UNL1        0.0789
     10 C          63.5872   86.5587   13.4907 C.3     1  UNL1        0.1869
     11 C          64.3347   87.0665   14.6879 C.3     1  UNL1        0.1064
     12 N          64.5949   88.5357   14.8420 N.3     1  UNL1       -0.2930
     13 C          64.1076   89.4971   13.7989 C.3     1  UNL1        0.1011
     14 C          63.3600   88.9893   12.6017 C.3     1  UNL1        0.1597
     15 O          63.0998   87.5201   12.4476 O.3     1  UNL1       -0.3458
     16 H          65.6067   88.6511   14.8991 H       1  UNL1        0.1234
     17 C          63.6065   84.8911   10.6857 C.3     1  UNL1        0.1340
     18 C          59.0808   87.0107    7.3654 C.3     1  UNL1        0.0310
     19 C          60.2122   86.4808    8.1954 C.ar    1  UNL1       -0.0219
     20 C          60.2073   86.6770    9.6826 C.ar    1  UNL1       -0.0045
     21 C          61.3388   86.1471   10.5126 C.ar    1  UNL1       -0.0027
     22 C          62.4751   85.4209    9.8556 C.ar    1  UNL1        0.0004
     23 C          62.4799   85.2248    8.3685 C.ar    1  UNL1       -0.0027
     24 C          61.3485   85.7547    7.5385 C.ar    1  UNL1       -0.0045
@<TRIPOS>BOND
     1    18    19    1
     2    19    20   ar
     3    20    21   ar
     4    21    22   ar
     5    22    17    1
     6    17     1    1
     7     1     2   ar
     8    10     2    1
     9    10    11    1
    10    11    12    1
    11    12    13    1
    12    13    14    1
    13    14    15    1
    14     2     3   ar
    15     3     4   ar
    16     4     5   ar
    17     5     6   ar
    18     6     7   ar
    19     7     8   ar
    20     8     9   ar
    21    22    23   ar
    22    23    24   ar
    23    24    19   ar
    24     9     1   ar
    25    15    10    1
    26     9     4   ar
    27    12    16    1
@<TRIPOS>MOLECULE
*****
 24 27 0 0 0
SMALL
GASTEIGER

@<TRIPOS>ATOM
      1 N          63.4235   87.3558   13.0398 N.ar    1  UNL1       -0.3087
      2 C          63.9060   87.7142   14.4140 C.ar    1  UNL1        0.1493
      3 N          64.1496   86.4398   15.1667 N.ar    1  UNL1       -0.2284
      4 C          63.8176   85.2938   14.2577 C.ar    1  UNL1        0.0984
      5 C          63.8660   83.8079   14.4571 C.ar    1  UNL1        0.0206
      6 C          63.4655   82.8882   13.3419 C.ar    1  UNL1        0.0016
      7 C          63.0167   83.4543   12.0273 C.ar    1  UNL1        0.0016
      8 C          62.9684   84.9402   11.8279 C.ar    1  UNL1        0.0188
      9 C          63.3688   85.8599   12.9431 C.ar    1  UNL1        0.0789
     10 C          64.1093   89.1032   14.9428 C.3     1  UNL1        0.1869
     11 C          63.2886   89.5932   16.0987 C.3     1  UNL1        0.1064
     12 N          63.4919   90.9822   16.6274 N.3     1  UNL1       -0.2930
     13 C          64.5159   91.8810   16.0002 C.3     1  UNL1        0.1011
     14 C          65.3366   91.3910   14.8443 C.3     1  UNL1        0.1597
     15 O          65.1333   90.0020   14.3156 O.3     1  UNL1       -0.3458
     16 H          63.7451   90.8887   17.6111 H       1  UNL1        0.1234
     17 C          63.0594   88.3234   11.9529 C.3     1  UNL1        0.1340
     18 C          59.0211   86.7814    7.7919 C.3     1  UNL1        0.0310
     19 C          60.0307   87.1669    8.8322 C.ar    1  UNL1       -0.0219
     20 C          61.4832   86.8598    8.6177 C.ar    1  UNL1       -0.0045
     21 C          62.4927   87.2453    9.6580 C.ar    1  UNL1       -0.0027
     22 C          62.0499   87.9379   10.9127 C.ar    1  UNL1        0.0004
     23 C          60.5974   88.2450   11.1271 C.ar    1  UNL1       -0.0027
     24 C          59.5878   87.8595   10.0868 C.ar    1  UNL1       -0.0045
@<TRIPOS>BOND
     1    18    19    1
     2    19    20   ar
     3    20    21   ar
     4    21    22   ar
     5    22    17    1
     6    17     1    1
     7     1     2   ar
     8    10     2    1
     9    10    11    1
    10    11    12    1
    11    12    13    1
    12    13    14    1
    13    14    15    1
    14     2     3   ar
    15     3     4   ar
    16     4     5   ar
    17     5     6   ar
    18     6     7   ar
    19     7     8   ar
    20     8     9   ar
    21    22    23   ar
    22    23    24   ar
    23    24    19   ar
    24     9     1   ar
    25    15    10    1
    26     9     4   ar
    27    12    16    1
@<TRIPOS>MOLECULE
*****
 24 27 0 0 0
SMALL
GASTEIGER

@<TRIPOS>ATOM
      1 N          62.3041   87.9135   11.9050 N.ar    1  UNL1       -0.3087
      2 C          61.7950   87.0514   10.7880 C.ar    1  UNL1        0.1493
      3 N          62.3146   85.6607   11.0021 N.ar    1  UNL1       -0.2284
      4 C          63.1448   85.6632   12.2514 C.ar    1  UNL1        0.0984
      5 C          63.9058   84.5776   12.9530 C.ar    1  UNL1        0.0206
      6 C          64.6604   84.8843   14.2126 C.ar    1  UNL1        0.0016
      7 C          64.6539   86.2766   14.7706 C.ar    1  UNL1        0.0016
      8 C          63.8929   87.3622   14.0690 C.ar    1  UNL1        0.0188
      9 C          63.1384   87.0555   12.8095 C.ar    1  UNL1        0.0789
     10 C          60.9200   87.5012    9.6557 C.3     1  UNL1        0.1869
     11 C          60.8795   88.9498    9.2688 C.3     1  UNL1        0.1064
     12 N          60.0045   89.3995    8.1365 N.3     1  UNL1       -0.2930
     13 C          59.1700   88.4006    7.3912 C.3     1  UNL1        0.1011
     14 C          59.2104   86.9520    7.7781 C.3     1  UNL1        0.1597
     15 O          60.0854   86.5023    8.9104 O.3     1  UNL1       -0.3458
     16 H          60.6153   89.8432    7.4506 H       1  UNL1        0.1234
     17 C          62.0276   89.3766   12.0858 C.3     1  UNL1        0.1340
     18 C          66.5042   93.3499   11.6701 C.3     1  UNL1        0.0310
     19 C          65.3851   92.3566   11.7740 C.ar    1  UNL1       -0.0219
     20 C          65.1038   91.6778   13.0818 C.ar    1  UNL1       -0.0045
     21 C          63.9847   90.6845   13.1857 C.ar    1  UNL1       -0.0027
     22 C          63.1467   90.3699   11.9819 C.ar    1  UNL1        0.0004
     23 C          63.4281   91.0488   10.6742 C.ar    1  UNL1       -0.0027
     24 C          64.5472   92.0421   10.5703 C.ar    1  UNL1       -0.0045
@<TRIPOS>BOND
     1    18    19    1
     2    19    20   ar
     3    20    21   ar
     4    21    22   ar
     5    22    17    1
     6    17     1    1
     7     1     2   ar
     8    10     2    1
     9    10    11    1
    10    11    12    1
    11    12    13    1
    12    13    14    1
    13    14    15    1
    14     2     3   ar
    15     3     4   ar
    16     4     5   ar
    17     5     6   ar
    18     6     7   ar
    19     7     8   ar
    20     8     9   ar
    21    22    23   ar
    22    23    24   ar
    23    24    19   ar
    24     9     1   ar
    25    15    10    1
    26     9     4   ar
    27    12    16    1
