@<TRIPOS>MOLECULE
*****
 29 31 0 0 0
SMALL
GASTEIGER

@<TRIPOS>ATOM
      1 C          64.1950   89.4177   13.6532 C.ar    1  UNL1        0.0534
      2 C          63.4183   89.0012   12.4395 C.ar    1  UNL1        0.0045
      3 C          62.9808   87.5751   12.2819 C.ar    1  UNL1        0.0001
      4 C          63.3200   86.5655   13.3381 C.ar    1  UNL1       -0.0002
      5 C          62.8826   85.1394   13.1805 C.ar    1  UNL1       -0.0017
      6 C          63.2218   84.1298   14.2367 C.ar    1  UNL1        0.0070
      7 C          63.9985   84.5463   15.4506 C.ar    1  UNL1       -0.0017
      8 C          64.4360   85.9724   15.6081 C.ar    1  UNL1       -0.0002
      9 C          64.0967   86.9820   14.5518 C.ar    1  UNL1        0.0001
     10 C          64.5342   88.4081   14.7094 C.ar    1  UNL1        0.0045
     11 N          65.6964   91.1962   14.8077 N.am    1  UNL1       -0.3009
     12 C          64.6325   90.8438   13.8107 C.2     1  UNL1        0.2458
     13 O          64.0061   91.9176   12.9714 O.2     1  UNL1       -0.2701
     14 H          66.1076   90.4915   15.3586 H       1  UNL1        0.1497
     15 C          66.1339   92.6223   14.9652 C.3     1  UNL1        0.0897
     16 C          68.5170   92.3616   15.9666 C.3     1  UNL1        0.0018
     17 C          67.1527   92.9837   16.0052 C.3     1  UNL1        0.0213
     18 C          62.7843   82.7037   14.0792 C.3     1  UNL1        0.1410
     19 O          62.2195   82.7234   15.4687 O.3     1  UNL1       -0.3771
     20 H          62.3645   83.5972   15.8642 H       1  UNL1        0.2112
     21 C          63.3490   82.6840   12.6897 C.ar    1  UNL1        0.0825
     22 C          64.7958   82.8355   12.3239 C.ar    1  UNL1        0.1157
     23 N          64.9071   82.7544   10.8302 N.ar    1  UNL1       -0.2228
     24 C          63.5291   82.5528   10.2730 C.ar    1  UNL1        0.1749
     25 N          62.5662   82.5092   11.4223 N.ar    1  UNL1       -0.3361
     26 H          61.5915   82.3874   11.3563 H       1  UNL1        0.1673
     27 C          62.3468   81.2776   13.9216 C.3     1  UNL1        0.0340
     28 C          63.3643   80.2042   13.6720 C.3     1  UNL1        0.0031
     29 C          60.8917   80.9249   14.0137 C.3     1  UNL1        0.0031
@<TRIPOS>BOND
     1    16    17    1
     2    17    15    1
     3    15    11    1
     4    11    12   am
     5    12    13    2
     6    12     1    1
     7     1     2   ar
     8     2     3   ar
     9     3     4   ar
    10     4     5   ar
    11     5     6   ar
    12     6    18    1
    13    18    19    1
    14    18    21    1
    15    21    22   ar
    16    22    23   ar
    17    23    24   ar
    18    24    25   ar
    19    18    27    1
    20    27    28    1
    21    27    29    1
    22     6     7   ar
    23     7     8   ar
    24     8     9   ar
    25     9    10   ar
    26    10     1   ar
    27     9     4   ar
    28    25    21   ar
    29    11    14    1
    30    19    20    1
    31    25    26    1
@<TRIPOS>MOLECULE
*****
 29 31 0 0 0
SMALL
GASTEIGER

@<TRIPOS>ATOM
      1 C          64.1629   89.5105   14.0198 C.ar    1  UNL1        0.0534
      2 C          63.4893   89.5414   12.6799 C.ar    1  UNL1        0.0045
      3 C          63.7515   90.6761   11.7346 C.ar    1  UNL1        0.0001
      4 C          64.6873   91.7800   12.1292 C.ar    1  UNL1       -0.0002
      5 C          64.9495   92.9148   11.1839 C.ar    1  UNL1       -0.0017
      6 C          65.8852   94.0187   11.5785 C.ar    1  UNL1        0.0070
      7 C          66.5589   93.9878   12.9184 C.ar    1  UNL1       -0.0017
      8 C          66.2967   92.8530   13.8637 C.ar    1  UNL1       -0.0002
      9 C          65.3609   91.7491   13.4690 C.ar    1  UNL1        0.0001
     10 C          65.0987   90.6144   14.4143 C.ar    1  UNL1        0.0045
     11 N          64.2749   86.9756   14.5782 N.am    1  UNL1       -0.3009
     12 C          63.9007   88.3757   14.9650 C.2     1  UNL1        0.2458
     13 O          63.2644   88.6410   16.2972 O.2     1  UNL1       -0.2701
     14 H          64.6925   86.8014   13.7038 H       1  UNL1        0.1497
     15 C          64.0127   85.8408   15.5235 C.3     1  UNL1        0.0897
     16 C          64.4315   84.1168   13.6255 C.3     1  UNL1        0.0018
     17 C          64.2486   84.4269   15.0816 C.3     1  UNL1        0.0213
     18 C          66.1474   95.1534   10.6332 C.3     1  UNL1        0.1410
     19 O          65.2242   96.0287   11.4279 O.3     1  UNL1       -0.3771
     20 H          64.8654   95.5256   12.1755 H       1  UNL1        0.2112
     21 C          67.0706   94.2781    9.8385 C.ar    1  UNL1        0.0825
     22 C          67.2220   94.2819    8.3462 C.ar    1  UNL1        0.1157
     23 N          68.2494   93.2515    7.9819 N.ar    1  UNL1       -0.2228
     24 C          68.7329   92.6109    9.2492 C.ar    1  UNL1        0.1749
     25 N          68.0043   93.2454   10.3966 N.ar    1  UNL1       -0.3361
     26 H          68.1188   93.0230   11.3488 H       1  UNL1        0.1673
     27 C          66.4096   96.2882    9.6879 C.3     1  UNL1        0.0340
     28 C          65.2890   96.8553    8.8678 C.3     1  UNL1        0.0031
     29 C          67.7924   96.8558    9.5627 C.3     1  UNL1        0.0031
@<TRIPOS>BOND
     1    16    17    1
     2    17    15    1
     3    15    11    1
     4    11    12   am
     5    12    13    2
     6    12     1    1
     7     1     2   ar
     8     2     3   ar
     9     3     4   ar
    10     4     5   ar
    11     5     6   ar
    12     6    18    1
    13    18    19    1
    14    18    21    1
    15    21    22   ar
    16    22    23   ar
    17    23    24   ar
    18    24    25   ar
    19    18    27    1
    20    27    28    1
    21    27    29    1
    22     6     7   ar
    23     7     8   ar
    24     8     9   ar
    25     9    10   ar
    26    10     1   ar
    27     9     4   ar
    28    25    21   ar
    29    11    14    1
    30    19    20    1
    31    25    26    1
@<TRIPOS>MOLECULE
*****
 29 31 0 0 0
SMALL
GASTEIGER

@<TRIPOS>ATOM
      1 C          65.1871   91.0239   14.1085 C.ar    1  UNL1        0.0534
      2 C          64.5823   89.7303   14.5677 C.ar    1  UNL1        0.0045
      3 C          63.5882   89.0173   13.6997 C.ar    1  UNL1        0.0001
      4 C          63.1990   89.5978   12.3725 C.ar    1  UNL1       -0.0002
      5 C          62.2049   88.8848   11.5045 C.ar    1  UNL1       -0.0017
      6 C          61.8157   89.4653   10.1773 C.ar    1  UNL1        0.0070
      7 C          62.4205   90.7589    9.7181 C.ar    1  UNL1       -0.0017
      8 C          63.4145   91.4720   10.5861 C.ar    1  UNL1       -0.0002
      9 C          63.8038   90.8914   11.9133 C.ar    1  UNL1        0.0001
     10 C          64.7978   91.6044   12.7813 C.ar    1  UNL1        0.0045
     11 N          67.6022   91.2607   15.0364 N.am    1  UNL1       -0.3009
     12 C          66.1811   91.7369   14.9765 C.2     1  UNL1        0.2458
     13 O          65.7541   92.9262   15.7847 O.2     1  UNL1       -0.2701
     14 H          67.8825   90.4801   14.5060 H       1  UNL1        0.1497
     15 C          68.5963   91.9737   15.9044 C.3     1  UNL1        0.0897
     16 C          69.0355   94.5187   16.1875 C.3     1  UNL1        0.0018
     17 C          69.2364   93.2428   15.4249 C.3     1  UNL1        0.0213
     18 C          60.8216   88.7523    9.3093 C.3     1  UNL1        0.1410
     19 O          60.2174   90.0688    8.9198 O.3     1  UNL1       -0.3771
     20 H          60.6932   90.7873    9.3650 H       1  UNL1        0.2112
     21 C          61.4258   87.4357    9.6988 C.ar    1  UNL1        0.0825
     22 C          62.4318   86.6576    8.9035 C.ar    1  UNL1        0.1157
     23 N          62.7578   85.4072    9.6652 N.ar    1  UNL1       -0.2228
     24 C          61.9534   85.4126   10.9312 C.ar    1  UNL1        0.1749
     25 N          61.1302   86.6663   10.9520 N.ar    1  UNL1       -0.3361
     26 H          60.5055   86.9367   11.6632 H       1  UNL1        0.1673
     27 C          59.8276   88.0392    8.4413 C.3     1  UNL1        0.0340
     28 C          59.2466   86.7298    8.8862 C.3     1  UNL1        0.0031
     29 C          59.4145   88.6356    7.1283 C.3     1  UNL1        0.0031
@<TRIPOS>BOND
     1    16    17    1
     2    17    15    1
     3    15    11    1
     4    11    12   am
     5    12    13    2
     6    12     1    1
     7     1     2   ar
     8     2     3   ar
     9     3     4   ar
    10     4     5   ar
    11     5     6   ar
    12     6    18    1
    13    18    19    1
    14    18    21    1
    15    21    22   ar
    16    22    23   ar
    17    23    24   ar
    18    24    25   ar
    19    18    27    1
    20    27    28    1
    21    27    29    1
    22     6     7   ar
    23     7     8   ar
    24     8     9   ar
    25     9    10   ar
    26    10     1   ar
    27     9     4   ar
    28    25    21   ar
    29    11    14    1
    30    19    20    1
    31    25    26    1
@<TRIPOS>MOLECULE
*****
 29 31 0 0 0
SMALL
GASTEIGER

@<TRIPOS>ATOM
      1 C          64.2028   89.7321   13.3372 C.ar    1  UNL1        0.0534
      2 C          64.7446   89.1544   14.6110 C.ar    1  UNL1        0.0045
      3 C          64.5375   87.7021   14.9237 C.ar    1  UNL1        0.0001
      4 C          63.7885   86.8274   13.9626 C.ar    1  UNL1       -0.0002
      5 C          63.5814   85.3750   14.2753 C.ar    1  UNL1       -0.0017
      6 C          62.8323   84.5003   13.3142 C.ar    1  UNL1        0.0070
      7 C          62.2904   85.0779   12.0403 C.ar    1  UNL1       -0.0017
      8 C          62.4975   86.5303   11.7276 C.ar    1  UNL1       -0.0002
      9 C          63.2466   87.4050   12.6888 C.ar    1  UNL1        0.0001
     10 C          63.4537   88.8574   12.3761 C.ar    1  UNL1        0.0045
     11 N          65.7143   91.8451   13.3592 N.am    1  UNL1       -0.3009
     12 C          64.4099   91.1844   13.0245 C.2     1  UNL1        0.2458
     13 O          63.3126   91.9761   12.3771 O.2     1  UNL1       -0.2701
     14 H          66.4345   91.3254   13.7841 H       1  UNL1        0.1497
     15 C          65.9214   93.2974   13.0465 C.3     1  UNL1        0.0897
     16 C          66.7865   92.8067   10.6463 C.3     1  UNL1        0.0018
     17 C          66.1367   93.7360   11.6282 C.3     1  UNL1        0.0213
     18 C          62.6252   83.0480   13.6269 C.3     1  UNL1        0.1410
     19 O          61.9947   83.4198   14.9362 O.3     1  UNL1       -0.3771
     20 H          61.9851   84.3854   15.0277 H       1  UNL1        0.2112
     21 C          63.2557   82.6762   12.3176 C.ar    1  UNL1        0.0825
     22 C          64.5767   83.1672   11.8043 C.ar    1  UNL1        0.1157
     23 N          64.8133   82.5425   10.4612 N.ar    1  UNL1       -0.2228
     24 C          63.6384   81.6655   10.1445 C.ar    1  UNL1        0.1749
     25 N          62.6757   81.7481   11.2918 N.ar    1  UNL1       -0.3361
     26 H          61.8144   81.2760   11.3597 H       1  UNL1        0.1673
     27 C          62.4181   81.5956   13.9396 C.3     1  UNL1        0.0340
     28 C          63.5996   80.6813   14.0732 C.3     1  UNL1        0.0031
     29 C          61.0293   81.0576   14.1186 C.3     1  UNL1        0.0031
@<TRIPOS>BOND
     1    16    17    1
     2    17    15    1
     3    15    11    1
     4    11    12   am
     5    12    13    2
     6    12     1    1
     7     1     2   ar
     8     2     3   ar
     9     3     4   ar
    10     4     5   ar
    11     5     6   ar
    12     6    18    1
    13    18    19    1
    14    18    21    1
    15    21    22   ar
    16    22    23   ar
    17    23    24   ar
    18    24    25   ar
    19    18    27    1
    20    27    28    1
    21    27    29    1
    22     6     7   ar
    23     7     8   ar
    24     8     9   ar
    25     9    10   ar
    26    10     1   ar
    27     9     4   ar
    28    25    21   ar
    29    11    14    1
    30    19    20    1
    31    25    26    1
@<TRIPOS>MOLECULE
*****
 29 31 0 0 0
SMALL
GASTEIGER

@<TRIPOS>ATOM
      1 C          61.6180   88.5115   10.1157 C.ar    1  UNL1        0.0534
      2 C          61.8312   89.8766    9.5317 C.ar    1  UNL1        0.0045
      3 C          62.7055   90.8676   10.2412 C.ar    1  UNL1        0.0001
      4 C          63.3666   90.4937   11.5346 C.ar    1  UNL1       -0.0002
      5 C          64.2409   91.4847   12.2441 C.ar    1  UNL1       -0.0017
      6 C          64.9019   91.1108   13.5376 C.ar    1  UNL1        0.0070
      7 C          64.6887   89.7456   14.1216 C.ar    1  UNL1       -0.0017
      8 C          63.8144   88.7545   13.4121 C.ar    1  UNL1       -0.0002
      9 C          63.1533   89.1286   12.1186 C.ar    1  UNL1        0.0001
     10 C          62.2790   88.1375   11.4091 C.ar    1  UNL1        0.0045
     11 N          61.3301   86.6128    8.3658 N.am    1  UNL1       -0.3009
     12 C          60.7437   87.5204    9.4062 C.2     1  UNL1        0.2458
     13 O          59.2831   87.4369    9.7370 O.2     1  UNL1       -0.2701
     14 H          62.2887   86.6676    8.1486 H       1  UNL1        0.1497
     15 C          60.4558   85.6217    7.6563 C.3     1  UNL1        0.0897
     16 C          62.4964   84.5662    6.4431 C.3     1  UNL1        0.0018
     17 C          61.0165   84.7908    6.5404 C.3     1  UNL1        0.0213
     18 C          65.7762   92.1018   14.2471 C.3     1  UNL1        0.1410
     19 O          64.9249   91.9735   15.4754 O.3     1  UNL1       -0.3771
     20 H          64.2084   91.3416   15.3076 H       1  UNL1        0.2112
     21 C          66.6275   92.2302   13.0187 C.ar    1  UNL1        0.0825
     22 C          67.9889   91.6318   12.8232 C.ar    1  UNL1        0.1157
     23 N          68.4696   92.0113   11.4539 N.ar    1  UNL1       -0.2228
     24 C          67.4052   92.8442   10.8033 C.ar    1  UNL1        0.1749
     25 N          66.2667   92.9795   11.7704 N.ar    1  UNL1       -0.3361
     26 H          65.4296   93.4734   11.6135 H       1  UNL1        0.1673
     27 C          66.6505   93.0929   14.9566 C.3     1  UNL1        0.0340
     28 C          67.2710   92.7369   16.2749 C.3     1  UNL1        0.0031
     29 C          66.9042   94.4401   14.3476 C.3     1  UNL1        0.0031
@<TRIPOS>BOND
     1    16    17    1
     2    17    15    1
     3    15    11    1
     4    11    12   am
     5    12    13    2
     6    12     1    1
     7     1     2   ar
     8     2     3   ar
     9     3     4   ar
    10     4     5   ar
    11     5     6   ar
    12     6    18    1
    13    18    19    1
    14    18    21    1
    15    21    22   ar
    16    22    23   ar
    17    23    24   ar
    18    24    25   ar
    19    18    27    1
    20    27    28    1
    21    27    29    1
    22     6     7   ar
    23     7     8   ar
    24     8     9   ar
    25     9    10   ar
    26    10     1   ar
    27     9     4   ar
    28    25    21   ar
    29    11    14    1
    30    19    20    1
    31    25    26    1
@<TRIPOS>MOLECULE
*****
 29 31 0 0 0
SMALL
GASTEIGER

@<TRIPOS>ATOM
      1 C          65.7246   91.1559   14.6084 C.ar    1  UNL1        0.0534
      2 C          65.1498   89.8658   15.1133 C.ar    1  UNL1        0.0045
      3 C          64.1763   89.0973   14.2696 C.ar    1  UNL1        0.0001
      4 C          63.7776   89.6191   12.9210 C.ar    1  UNL1       -0.0002
      5 C          62.8041   88.8507   12.0773 C.ar    1  UNL1       -0.0017
      6 C          62.4055   89.3724   10.7287 C.ar    1  UNL1        0.0070
      7 C          62.9803   90.6626   10.2237 C.ar    1  UNL1       -0.0017
      8 C          63.9538   91.4311   11.0674 C.ar    1  UNL1       -0.0002
      9 C          64.3525   90.9092   12.4161 C.ar    1  UNL1        0.0001
     10 C          65.3260   91.6777   13.2597 C.ar    1  UNL1        0.0045
     11 N          68.1667   91.6355   15.3541 N.am    1  UNL1       -0.3009
     12 C          66.6981   91.9244   15.4521 C.2     1  UNL1        0.2458
     13 O          66.2030   92.9817   16.3938 O.2     1  UNL1       -0.2701
     14 H          68.4917   90.9415   14.7360 H       1  UNL1        0.1497
     15 C          69.1402   92.4039   16.1977 C.3     1  UNL1        0.0897
     16 C          69.1249   95.0017   16.1590 C.3     1  UNL1        0.0018
     17 C          69.7076   93.6990   15.6969 C.3     1  UNL1        0.0213
     18 C          61.4320   88.6040    9.8850 C.3     1  UNL1        0.1410
     19 O          62.5592   88.1292    9.0167 O.3     1  UNL1       -0.3771
     20 H          63.3957   88.4954    9.3439 H       1  UNL1        0.2112
     21 C          60.3047   89.0787   10.7532 C.ar    1  UNL1        0.0825
     22 C          59.7598   90.4752   10.8052 C.ar    1  UNL1        0.1157
     23 N          58.6428   90.4999   11.8061 N.ar    1  UNL1       -0.2228
     24 C          58.4974   89.1187   12.3726 C.ar    1  UNL1        0.1749
     25 N          59.5246   88.2403   11.7219 N.ar    1  UNL1       -0.3361
     26 H          59.6625   87.2818   11.8994 H       1  UNL1        0.1673
     27 C          60.4585   87.8355    9.0413 C.3     1  UNL1        0.0340
     28 C          59.5426   88.5629    8.1022 C.3     1  UNL1        0.0031
     29 C          60.4009   86.3396    9.1367 C.3     1  UNL1        0.0031
@<TRIPOS>BOND
     1    16    17    1
     2    17    15    1
     3    15    11    1
     4    11    12   am
     5    12    13    2
     6    12     1    1
     7     1     2   ar
     8     2     3   ar
     9     3     4   ar
    10     4     5   ar
    11     5     6   ar
    12     6    18    1
    13    18    19    1
    14    18    21    1
    15    21    22   ar
    16    22    23   ar
    17    23    24   ar
    18    24    25   ar
    19    18    27    1
    20    27    28    1
    21    27    29    1
    22     6     7   ar
    23     7     8   ar
    24     8     9   ar
    25     9    10   ar
    26    10     1   ar
    27     9     4   ar
    28    25    21   ar
    29    11    14    1
    30    19    20    1
    31    25    26    1
@<TRIPOS>MOLECULE
*****
 29 31 0 0 0
SMALL
GASTEIGER

@<TRIPOS>ATOM
      1 C          60.6661   89.3703    9.3477 C.ar    1  UNL1        0.0534
      2 C          60.3767   88.7047   10.6604 C.ar    1  UNL1        0.0045
      3 C          61.2268   89.0079   11.8585 C.ar    1  UNL1        0.0001
      4 C          62.3662   89.9767   11.7439 C.ar    1  UNL1       -0.0002
      5 C          63.2163   90.2799   12.9420 C.ar    1  UNL1       -0.0017
      6 C          64.3557   91.2486   12.8274 C.ar    1  UNL1        0.0070
      7 C          64.6451   91.9142   11.5147 C.ar    1  UNL1       -0.0017
      8 C          63.7951   91.6110   10.3166 C.ar    1  UNL1       -0.0002
      9 C          62.6556   90.6422   10.4312 C.ar    1  UNL1        0.0001
     10 C          61.8055   90.3390    9.2331 C.ar    1  UNL1        0.0045
     11 N          59.6014   90.1147    7.0978 N.am    1  UNL1       -0.3009
     12 C          59.8160   89.0671    8.1496 C.2     1  UNL1        0.2458
     13 O          59.1807   87.7162    8.0033 O.2     1  UNL1       -0.2701
     14 H          60.0184   91.0013    7.1938 H       1  UNL1        0.1497
     15 C          58.7513   89.8115    5.8997 C.3     1  UNL1        0.0897
     16 C          58.9972   92.0637    4.6280 C.3     1  UNL1        0.0018
     17 C          58.1400   90.9315    5.1110 C.3     1  UNL1        0.0213
     18 C          65.2057   91.5518   14.0256 C.3     1  UNL1        0.1410
     19 O          65.9187   92.6193   13.2496 O.3     1  UNL1       -0.3771
     20 H          65.5541   92.6646   12.3518 H       1  UNL1        0.2112
     21 C          64.4928   90.4843   14.8015 C.ar    1  UNL1        0.0825
     22 C          64.6789   89.0047   14.6412 C.ar    1  UNL1        0.1157
     23 N          63.7697   88.3149   15.6147 N.ar    1  UNL1       -0.2228
     24 C          63.0217   89.3684   16.3766 C.ar    1  UNL1        0.1749
     25 N          63.4686   90.7092   15.8740 N.ar    1  UNL1       -0.3361
     26 H          63.1463   91.5833   16.1923 H       1  UNL1        0.1673
     27 C          66.0558   91.8550   15.2237 C.3     1  UNL1        0.0340
     28 C          67.5112   91.4920   15.2219 C.3     1  UNL1        0.0031
     29 C          65.4504   92.5213   16.4236 C.3     1  UNL1        0.0031
@<TRIPOS>BOND
     1    16    17    1
     2    17    15    1
     3    15    11    1
     4    11    12   am
     5    12    13    2
     6    12     1    1
     7     1     2   ar
     8     2     3   ar
     9     3     4   ar
    10     4     5   ar
    11     5     6   ar
    12     6    18    1
    13    18    19    1
    14    18    21    1
    15    21    22   ar
    16    22    23   ar
    17    23    24   ar
    18    24    25   ar
    19    18    27    1
    20    27    28    1
    21    27    29    1
    22     6     7   ar
    23     7     8   ar
    24     8     9   ar
    25     9    10   ar
    26    10     1   ar
    27     9     4   ar
    28    25    21   ar
    29    11    14    1
    30    19    20    1
    31    25    26    1
@<TRIPOS>MOLECULE
*****
 29 31 0 0 0
SMALL
GASTEIGER

@<TRIPOS>ATOM
      1 C          61.8473   89.1533   10.3234 C.ar    1  UNL1        0.0534
      2 C          62.1696   88.2655   11.4887 C.ar    1  UNL1        0.0045
      3 C          63.1954   88.6932   12.4961 C.ar    1  UNL1        0.0001
      4 C          63.8988   90.0085   12.3382 C.ar    1  UNL1       -0.0002
      5 C          64.9246   90.4361   13.3457 C.ar    1  UNL1       -0.0017
      6 C          65.6281   91.7514   13.1878 C.ar    1  UNL1        0.0070
      7 C          65.3058   92.6392   12.0224 C.ar    1  UNL1       -0.0017
      8 C          64.2800   92.2116   11.0150 C.ar    1  UNL1       -0.0002
      9 C          63.5765   90.8962   11.1729 C.ar    1  UNL1        0.0001
     10 C          62.5507   90.4686   10.1655 C.ar    1  UNL1        0.0045
     11 N          60.3334   89.6981    8.2835 N.am    1  UNL1       -0.3009
     12 C          60.8215   88.7256    9.3160 C.2     1  UNL1        0.2458
     13 O          60.2838   87.3256    9.3410 O.2     1  UNL1       -0.2701
     14 H          60.6862   90.6170    8.2670 H       1  UNL1        0.1497
     15 C          59.3076   89.2705    7.2761 C.3     1  UNL1        0.0897
     16 C          58.2536   90.8661    5.5173 C.3     1  UNL1        0.0018
     17 C          59.3093   89.8724    5.9021 C.3     1  UNL1        0.0213
     18 C          66.6539   92.1790   14.1952 C.3     1  UNL1        0.1410
     19 O          67.6898   92.2450   13.1124 O.3     1  UNL1       -0.3771
     20 H          67.2877   91.9985   12.2647 H       1  UNL1        0.2112
     21 C          65.6180   92.1131   15.2780 C.ar    1  UNL1        0.0825
     22 C          64.4225   91.2074   15.3004 C.ar    1  UNL1        0.1157
     23 N          63.6613   91.4757   16.5648 N.ar    1  UNL1       -0.2228
     24 C          64.3864   92.5473   17.3237 C.ar    1  UNL1        0.1749
     25 N          65.5957   92.9412   16.5284 N.ar    1  UNL1       -0.3361
     26 H          66.2584   93.6234   16.7825 H       1  UNL1        0.1673
     27 C          67.6797   92.6067   15.2026 C.3     1  UNL1        0.0340
     28 C          68.0533   94.0542   15.3244 C.3     1  UNL1        0.0031
     29 C          68.3318   91.5866   16.0883 C.3     1  UNL1        0.0031
@<TRIPOS>BOND
     1    16    17    1
     2    17    15    1
     3    15    11    1
     4    11    12   am
     5    12    13    2
     6    12     1    1
     7     1     2   ar
     8     2     3   ar
     9     3     4   ar
    10     4     5   ar
    11     5     6   ar
    12     6    18    1
    13    18    19    1
    14    18    21    1
    15    21    22   ar
    16    22    23   ar
    17    23    24   ar
    18    24    25   ar
    19    18    27    1
    20    27    28    1
    21    27    29    1
    22     6     7   ar
    23     7     8   ar
    24     8     9   ar
    25     9    10   ar
    26    10     1   ar
    27     9     4   ar
    28    25    21   ar
    29    11    14    1
    30    19    20    1
    31    25    26    1
@<TRIPOS>MOLECULE
*****
 29 31 0 0 0
SMALL
GASTEIGER

@<TRIPOS>ATOM
      1 C          63.2818   85.7386   13.3831 C.ar    1  UNL1        0.0534
      2 C          64.1921   85.7394   14.5752 C.ar    1  UNL1        0.0045
      3 C          64.8723   87.0075   14.9987 C.ar    1  UNL1        0.0001
      4 C          64.6422   88.2747   14.2299 C.ar    1  UNL1       -0.0002
      5 C          65.3225   89.5428   14.6533 C.ar    1  UNL1       -0.0017
      6 C          65.0924   90.8101   13.8846 C.ar    1  UNL1        0.0070
      7 C          64.1821   90.8093   12.6923 C.ar    1  UNL1       -0.0017
      8 C          63.5018   89.5413   12.2689 C.ar    1  UNL1       -0.0002
      9 C          63.7319   88.2739   13.0377 C.ar    1  UNL1        0.0001
     10 C          63.0517   87.0059   12.6143 C.ar    1  UNL1        0.0045
     11 N          62.5388   83.3032   13.8995 N.am    1  UNL1       -0.3009
     12 C          62.6015   84.4705   12.9597 C.2     1  UNL1        0.2458
     13 O          61.9840   84.3698   11.5964 O.2     1  UNL1       -0.2701
     14 H          62.9441   83.3693   14.7942 H       1  UNL1        0.1497
     15 C          61.8586   82.0351   13.4761 C.3     1  UNL1        0.0897
     16 C          62.9702   81.0268   11.3552 C.3     1  UNL1        0.0018
     17 C          62.6495   80.9434   12.8182 C.3     1  UNL1        0.0213
     18 C          65.7726   92.0782   14.3080 C.3     1  UNL1        0.1410
     19 O          64.9796   92.0785   15.5812 O.3     1  UNL1       -0.3771
     20 H          64.3939   91.3054   15.5975 H       1  UNL1        0.2112
     21 C          66.5657   92.0779   13.0348 C.ar    1  UNL1        0.0825
     22 C          67.9963   91.6520   12.8873 C.ar    1  UNL1        0.1157
     23 N          68.3822   91.8143   11.4469 N.ar    1  UNL1       -0.2228
     24 C          67.1899   92.3405   10.7042 C.ar    1  UNL1        0.1749
     25 N          66.0673   92.5034   11.6856 N.ar    1  UNL1       -0.3361
     26 H          65.1622   92.8319   11.4802 H       1  UNL1        0.1673
     27 C          66.4528   93.3462   14.7314 C.3     1  UNL1        0.0340
     28 C          67.1880   93.4029   16.0376 C.3     1  UNL1        0.0031
     29 C          66.3979   94.5577   13.8485 C.3     1  UNL1        0.0031
@<TRIPOS>BOND
     1    16    17    1
     2    17    15    1
     3    15    11    1
     4    11    12   am
     5    12    13    2
     6    12     1    1
     7     1     2   ar
     8     2     3   ar
     9     3     4   ar
    10     4     5   ar
    11     5     6   ar
    12     6    18    1
    13    18    19    1
    14    18    21    1
    15    21    22   ar
    16    22    23   ar
    17    23    24   ar
    18    24    25   ar
    19    18    27    1
    20    27    28    1
    21    27    29    1
    22     6     7   ar
    23     7     8   ar
    24     8     9   ar
    25     9    10   ar
    26    10     1   ar
    27     9     4   ar
    28    25    21   ar
    29    11    14    1
    30    19    20    1
    31    25    26    1
