@<TRIPOS>MOLECULE
*****
 32 36 0 0 0
SMALL
GASTEIGER

@<TRIPOS>ATOM
      1 C          64.4991   90.7051   14.5212 C.ar    1  UNL1        0.0641
      2 C          63.7656   91.1365   13.2859 C.ar    1  UNL1        0.0153
      3 C          63.1705   90.1087   12.3698 C.ar    1  UNL1        0.0086
      4 C          63.3087   88.6496   12.6889 C.ar    1  UNL1        0.0853
      5 C          64.0421   88.2182   13.9242 C.ar    1  UNL1        0.1361
      6 N          64.6373   89.2460   14.8403 N.ar    1  UNL1       -0.2344
      7 N          64.2932   86.8268   14.4249 N.pl3   1  UNL1       -0.2969
      8 C          63.8727   85.5229   13.8139 C.ar    1  UNL1        0.0631
      9 C          64.3301   84.3576   14.6404 C.ar    1  UNL1        0.0174
     10 C          64.0122   82.9581   14.2043 C.ar    1  UNL1        0.0189
     11 C          63.2369   82.7238   12.9418 C.ar    1  UNL1        0.0669
     12 C          62.7796   83.8889   12.1153 C.ar    1  UNL1        0.0335
     13 C          63.0975   85.2885   12.5514 C.ar    1  UNL1        0.0656
     14 N          62.5511   86.3001   11.5880 N.am    1  UNL1       -0.2793
     15 C          62.6452   87.7959   11.6492 C.2     1  UNL1        0.2522
     16 O          61.9888   88.5359   10.5215 O.2     1  UNL1       -0.2697
     17 H          64.8010   86.7605   15.2657 H       1  UNL1        0.1536
     18 H          62.0668   85.9339   10.8130 H       1  UNL1        0.1552
     19 N          62.9191   81.3242   12.5058 N.ar    1  UNL1       -0.2857
     20 C          62.3846   80.2283   13.3796 C.ar    1  UNL1        0.1836
     21 N          62.2151   79.0016   12.5332 N.ar    1  UNL1       -0.2120
     22 C          62.6449   79.3392   11.1363 C.ar    1  UNL1        0.1575
     23 CL         62.6404   78.4054    9.9624 Cl      1  UNL1       -0.0597
     24 C          63.0799   80.7746   11.1193 C.ar    1  UNL1        0.1124
     25 C          64.2573   92.3469   16.5202 C.3     1  UNL1        0.0110
     26 C          65.0943   91.7329   15.4375 C.3     1  UNL1        0.0625
     27 C          66.5264   92.1466   15.2708 C.ar    1  UNL1       -0.0169
     28 C          67.1681   93.0513   16.2806 C.ar    1  UNL1       -0.0039
     29 C          68.6003   93.4651   16.1140 C.ar    1  UNL1       -0.0003
     30 C          69.3907   92.9741   14.9376 C.ar    1  UNL1       -0.0000
     31 C          68.7491   92.0693   13.9277 C.ar    1  UNL1       -0.0003
     32 C          67.3169   91.6556   14.0943 C.ar    1  UNL1       -0.0039
@<TRIPOS>BOND
     1    25    26    1
     2    26    27    1
     3    27    28   ar
     4    28    29   ar
     5    29    30   ar
     6    30    31   ar
     7    31    32   ar
     8    26     1    1
     9     1     2   ar
    10     2     3   ar
    11     3     4   ar
    12     4     5   ar
    13     5     6   ar
    14     5     7    1
    15     7     8    1
    16     8     9   ar
    17     9    10   ar
    18    10    11   ar
    19    11    19    1
    20    19    20   ar
    21    20    21   ar
    22    21    22   ar
    23    22    23    1
    24    22    24   ar
    25    11    12   ar
    26    12    13   ar
    27    13    14    1
    28    14    15   am
    29    15    16    2
    30    32    27   ar
    31     6     1   ar
    32    13     8   ar
    33    15     4    1
    34    24    19   ar
    35     7    17    1
    36    14    18    1
@<TRIPOS>MOLECULE
*****
 32 36 0 0 0
SMALL
GASTEIGER

@<TRIPOS>ATOM
      1 C          63.6153   85.3823   13.6630 C.ar    1  UNL1        0.0641
      2 C          64.1735   86.6698   14.1927 C.ar    1  UNL1        0.0153
      3 C          63.8623   87.9634   13.5001 C.ar    1  UNL1        0.0086
      4 C          62.9928   87.9695   12.2778 C.ar    1  UNL1        0.0853
      5 C          62.4346   86.6820   11.7481 C.ar    1  UNL1        0.1361
      6 N          62.7459   85.3884   12.4406 N.ar    1  UNL1       -0.2344
      7 N          61.5537   86.4659   10.5534 N.pl3   1  UNL1       -0.2969
      8 C          61.0134   87.4840    9.5935 C.ar    1  UNL1        0.0631
      9 C          60.1681   86.8429    8.5329 C.ar    1  UNL1        0.0174
     10 C          59.5302   87.6874    7.4701 C.ar    1  UNL1        0.0189
     11 C          59.7373   89.1730    7.4677 C.ar    1  UNL1        0.0669
     12 C          60.5825   89.8141    8.5281 C.ar    1  UNL1        0.0335
     13 C          61.2205   88.9696    9.5911 C.ar    1  UNL1        0.0656
     14 N          62.0192   89.8041   10.5480 N.am    1  UNL1       -0.2793
     15 C          62.8079   89.3589   11.7438 C.2     1  UNL1        0.2522
     16 O          63.5038   90.4472   12.5062 O.2     1  UNL1       -0.2697
     17 H          61.2961   85.5324   10.3759 H       1  UNL1        0.1536
     18 H          62.0267   90.7718   10.3674 H       1  UNL1        0.1552
     19 N          59.0993   90.0175    6.4048 N.ar    1  UNL1       -0.2857
     20 C          57.6276   90.1409    6.1419 C.ar    1  UNL1        0.1836
     21 N          57.4397   91.0865    4.9927 N.ar    1  UNL1       -0.2120
     22 C          58.7953   91.5475    4.5454 C.ar    1  UNL1        0.1575
     23 CL         59.0759   92.5017    3.4225 Cl      1  UNL1       -0.0597
     24 C          59.8209   90.8868    5.4180 C.ar    1  UNL1        0.1124
     25 C          64.9125   84.0611   15.4856 C.3     1  UNL1        0.0110
     26 C          63.9265   84.0886   14.3555 C.3     1  UNL1        0.0625
     27 C          63.2517   82.8224   13.9180 C.ar    1  UNL1       -0.0169
     28 C          63.8358   82.0083   12.8019 C.ar    1  UNL1       -0.0039
     29 C          63.1610   80.7421   12.3643 C.ar    1  UNL1       -0.0003
     30 C          61.9020   80.2901   13.0430 C.ar    1  UNL1       -0.0000
     31 C          61.3178   81.1043   14.1592 C.ar    1  UNL1       -0.0003
     32 C          61.9926   82.3705   14.5967 C.ar    1  UNL1       -0.0039
@<TRIPOS>BOND
     1    25    26    1
     2    26    27    1
     3    27    28   ar
     4    28    29   ar
     5    29    30   ar
     6    30    31   ar
     7    31    32   ar
     8    26     1    1
     9     1     2   ar
    10     2     3   ar
    11     3     4   ar
    12     4     5   ar
    13     5     6   ar
    14     5     7    1
    15     7     8    1
    16     8     9   ar
    17     9    10   ar
    18    10    11   ar
    19    11    19    1
    20    19    20   ar
    21    20    21   ar
    22    21    22   ar
    23    22    23    1
    24    22    24   ar
    25    11    12   ar
    26    12    13   ar
    27    13    14    1
    28    14    15   am
    29    15    16    2
    30    32    27   ar
    31     6     1   ar
    32    13     8   ar
    33    15     4    1
    34    24    19   ar
    35     7    17    1
    36    14    18    1
@<TRIPOS>MOLECULE
*****
 32 36 0 0 0
SMALL
GASTEIGER

@<TRIPOS>ATOM
      1 C          64.6236   91.3386   12.4959 C.ar    1  UNL1        0.0641
      2 C          63.6271   91.4843   11.3843 C.ar    1  UNL1        0.0153
      3 C          62.7795   90.3151   10.9789 C.ar    1  UNL1        0.0086
      4 C          62.9283   89.0002   11.6852 C.ar    1  UNL1        0.0853
      5 C          63.9248   88.8545   12.7969 C.ar    1  UNL1        0.1361
      6 N          64.7724   90.0237   13.2022 N.ar    1  UNL1       -0.2344
      7 N          64.2306   87.6424   13.6258 N.pl3   1  UNL1       -0.2969
      8 C          63.6155   86.2765   13.5478 C.ar    1  UNL1        0.0631
      9 C          64.2115   85.3482   14.5642 C.ar    1  UNL1        0.0174
     10 C          63.7346   83.9289   14.6544 C.ar    1  UNL1        0.0189
     11 C          62.6618   83.4379   13.7282 C.ar    1  UNL1        0.0669
     12 C          62.0657   84.3661   12.7119 C.ar    1  UNL1        0.0335
     13 C          62.5426   85.7855   12.6217 C.ar    1  UNL1        0.0656
     14 N          61.8198   86.5390   11.5447 N.am    1  UNL1       -0.2793
     15 C          61.9915   87.9697   11.1280 C.2     1  UNL1        0.2522
     16 O          61.1098   88.4308   10.0056 O.2     1  UNL1       -0.2697
     17 H          64.9272   87.7587   14.3117 H       1  UNL1        0.1536
     18 H          61.1434   86.0268   11.0454 H       1  UNL1        0.1552
     19 N          62.1850   82.0185   13.8185 N.ar    1  UNL1       -0.2857
     20 C          63.0238   80.7919   13.6142 C.ar    1  UNL1        0.1836
     21 N          62.1428   79.5919   13.7983 N.ar    1  UNL1       -0.2120
     22 C          60.7595   80.0769   14.1165 C.ar    1  UNL1        0.1575
     23 CL         59.5606   79.2138   14.3765 Cl      1  UNL1       -0.0597
     24 C          60.7855   81.5766   14.1289 C.ar    1  UNL1        0.1124
     25 C          65.6793   92.8154   14.3546 C.3     1  UNL1        0.0110
     26 C          65.4714   92.5079   12.9013 C.3     1  UNL1        0.0625
     27 C          66.1111   93.3696   11.8533 C.ar    1  UNL1       -0.0169
     28 C          66.8448   92.7374   10.7079 C.ar    1  UNL1       -0.0039
     29 C          67.4845   93.5991    9.6599 C.ar    1  UNL1       -0.0003
     30 C          67.3905   95.0929    9.7573 C.ar    1  UNL1       -0.0000
     31 C          66.6568   95.7252   10.9027 C.ar    1  UNL1       -0.0003
     32 C          66.0171   94.8635   11.9507 C.ar    1  UNL1       -0.0039
@<TRIPOS>BOND
     1    25    26    1
     2    26    27    1
     3    27    28   ar
     4    28    29   ar
     5    29    30   ar
     6    30    31   ar
     7    31    32   ar
     8    26     1    1
     9     1     2   ar
    10     2     3   ar
    11     3     4   ar
    12     4     5   ar
    13     5     6   ar
    14     5     7    1
    15     7     8    1
    16     8     9   ar
    17     9    10   ar
    18    10    11   ar
    19    11    19    1
    20    19    20   ar
    21    20    21   ar
    22    21    22   ar
    23    22    23    1
    24    22    24   ar
    25    11    12   ar
    26    12    13   ar
    27    13    14    1
    28    14    15   am
    29    15    16    2
    30    32    27   ar
    31     6     1   ar
    32    13     8   ar
    33    15     4    1
    34    24    19   ar
    35     7    17    1
    36    14    18    1
@<TRIPOS>MOLECULE
*****
 32 36 0 0 0
SMALL
GASTEIGER

@<TRIPOS>ATOM
      1 C          64.6004   91.4040   12.3095 C.ar    1  UNL1        0.0641
      2 C          63.6270   91.5186   11.1740 C.ar    1  UNL1        0.0153
      3 C          62.7946   90.3355   10.7775 C.ar    1  UNL1        0.0086
      4 C          62.9356   89.0378   11.5164 C.ar    1  UNL1        0.0853
      5 C          63.9090   88.9232   12.6519 C.ar    1  UNL1        0.1361
      6 N          64.7414   90.1063   13.0484 N.ar    1  UNL1       -0.2344
      7 N          64.2038   87.7319   13.5144 N.pl3   1  UNL1       -0.2969
      8 C          63.5980   86.3610   13.4544 C.ar    1  UNL1        0.0631
      9 C          64.1774   85.4594   14.5039 C.ar    1  UNL1        0.0174
     10 C          63.7066   84.0397   14.6162 C.ar    1  UNL1        0.0189
     11 C          62.6564   83.5215   13.6789 C.ar    1  UNL1        0.0669
     12 C          62.0770   84.4230   12.6294 C.ar    1  UNL1        0.0335
     13 C          62.5478   85.8428   12.5172 C.ar    1  UNL1        0.0656
     14 N          61.8439   86.5674   11.4084 N.am    1  UNL1       -0.2793
     15 C          62.0165   87.9894   10.9630 C.2     1  UNL1        0.2522
     16 O          61.1563   88.4198    9.8121 O.2     1  UNL1       -0.2697
     17 H          64.8850   87.8678   14.2121 H       1  UNL1        0.1536
     18 H          61.1811   86.0401   10.9066 H       1  UNL1        0.1552
     19 N          62.1856   82.1017   13.7913 N.ar    1  UNL1       -0.2857
     20 C          63.0342   80.8757   13.6268 C.ar    1  UNL1        0.1836
     21 N          62.1565   79.6750   13.8217 N.ar    1  UNL1       -0.2120
     22 C          60.7655   80.1588   14.1066 C.ar    1  UNL1        0.1575
     23 CL         59.5670   79.2946   14.3650 Cl      1  UNL1       -0.0597
     24 C          60.7835   81.6586   14.0878 C.ar    1  UNL1        0.1124
     25 C          65.3841   93.8455   11.8911 C.3     1  UNL1        0.0110
     26 C          65.4328   92.5872   12.7061 C.3     1  UNL1        0.0625
     27 C          66.3140   92.5119   13.9176 C.ar    1  UNL1       -0.0169
     28 C          65.7209   92.6635   15.2870 C.ar    1  UNL1       -0.0039
     29 C          66.6021   92.5882   16.4985 C.ar    1  UNL1       -0.0003
     30 C          68.0764   92.3615   16.3407 C.ar    1  UNL1       -0.0000
     31 C          68.6696   92.2099   14.9713 C.ar    1  UNL1       -0.0003
     32 C          67.7884   92.2851   13.7598 C.ar    1  UNL1       -0.0039
@<TRIPOS>BOND
     1    25    26    1
     2    26    27    1
     3    27    28   ar
     4    28    29   ar
     5    29    30   ar
     6    30    31   ar
     7    31    32   ar
     8    26     1    1
     9     1     2   ar
    10     2     3   ar
    11     3     4   ar
    12     4     5   ar
    13     5     6   ar
    14     5     7    1
    15     7     8    1
    16     8     9   ar
    17     9    10   ar
    18    10    11   ar
    19    11    19    1
    20    19    20   ar
    21    20    21   ar
    22    21    22   ar
    23    22    23    1
    24    22    24   ar
    25    11    12   ar
    26    12    13   ar
    27    13    14    1
    28    14    15   am
    29    15    16    2
    30    32    27   ar
    31     6     1   ar
    32    13     8   ar
    33    15     4    1
    34    24    19   ar
    35     7    17    1
    36    14    18    1
