@<TRIPOS>MOLECULE
*****
 31 34 0 0 0
SMALL
GASTEIGER

@<TRIPOS>ATOM
      1 N          63.2619   89.4953   14.5117 N.pl3   1  UNL1       -0.2602
      2 H          62.4468   89.7010   13.9993 H       1  UNL1        0.1570
      3 C          66.1757   91.9975   15.0723 C.ar    1  UNL1        0.1423
      4 N          65.1097   92.5943   15.9426 N.ar    1  UNL1       -0.1413
      5 N          63.8885   91.7296   15.8385 N.ar    1  UNL1       -0.1255
      6 C          64.1996   90.5984   14.9039 C.ar    1  UNL1        0.1880
      7 S          65.6133   90.7640   14.4303 S.2     1  UNL1       -0.0320
      8 C          67.5609   92.5392   14.8780 C.3     1  UNL1        0.1709
      9 C          67.8296   92.3780   16.3449 C.3     1  UNL1        0.0429
     10 O          68.9462   93.0809   14.6838 O.3     1  UNL1       -0.3745
     11 H          69.0809   93.2960   13.7476 H       1  UNL1        0.2113
     12 C          67.8977   92.0692    9.6296 C.3     1  UNL1        0.0527
     13 C          67.4470   92.4844   10.9987 C.ar    1  UNL1        0.0661
     14 C          66.3104   93.4129   11.3089 C.ar    1  UNL1        0.0513
     15 S          66.2148   93.5464   12.7999 S.2     1  UNL1       -0.0680
     16 C          67.2922   92.7005   13.4112 C.ar    1  UNL1        0.1179
     17 N          68.0538   92.0442   12.2979 N.ar    1  UNL1       -0.2443
     18 C          63.5659   88.0788   14.9003 C.ar    1  UNL1        0.2408
     19 N          63.3603   87.4732   16.2572 N.ar    1  UNL1       -0.1904
     20 C          63.7963   86.0393   16.1957 C.ar    1  UNL1        0.1986
     21 N          64.2714   85.7586   14.8009 N.ar    1  UNL1       -0.2242
     22 N          64.1290   87.0191   14.0003 N.ar    1  UNL1       -0.1319
     23 C          64.7966   84.4477   14.2954 C.3     1  UNL1        0.1601
     24 C          63.8455   83.4021   13.7932 C.ar    1  UNL1        0.0571
     25 C          62.7861   82.8532   14.7021 C.ar    1  UNL1        0.1402
     26 F          62.6777   83.3497   16.1134 F       1  UNL1       -0.2044
     27 C          61.8351   81.8076   14.1998 C.ar    1  UNL1        0.0295
     28 C          61.9435   81.3111   12.7885 C.ar    1  UNL1        0.0046
     29 C          63.0029   81.8600   11.8796 C.ar    1  UNL1        0.0295
     30 C          63.9539   82.9056   12.3819 C.ar    1  UNL1        0.1402
     31 F          65.0134   83.4546   11.4729 F       1  UNL1       -0.2044
@<TRIPOS>BOND
     1    12    13    1
     2    13    14   ar
     3    14    15   ar
     4    15    16   ar
     5    16     8    1
     6     8     9    1
     7     8    10    1
     8     8     3    1
     9     3     4   ar
    10     4     5   ar
    11     5     6   ar
    12     6     1    1
    13     1    18    1
    14    18    19   ar
    15    19    20   ar
    16    20    21   ar
    17    21    23    1
    18    23    24    1
    19    24    25   ar
    20    25    26    1
    21    25    27   ar
    22    27    28   ar
    23    28    29   ar
    24    29    30   ar
    25    30    31    1
    26    21    22   ar
    27     6     7   ar
    28    16    17   ar
    29    17    13   ar
    30     7     3   ar
    31    22    18   ar
    32    30    24   ar
    33    10    11    1
    34     1     2    1
@<TRIPOS>MOLECULE
*****
 31 34 0 0 0
SMALL
GASTEIGER

@<TRIPOS>ATOM
      1 N          63.2630   89.4944   14.5154 N.pl3   1  UNL1       -0.2602
      2 H          62.4464   89.7006   14.0056 H       1  UNL1        0.1570
      3 C          66.1792   91.9950   15.0703 C.ar    1  UNL1        0.1423
      4 N          65.1148   92.5931   15.9417 N.ar    1  UNL1       -0.1413
      5 N          63.8928   91.7292   15.8398 N.ar    1  UNL1       -0.1255
      6 C          64.2020   90.5971   14.9056 C.ar    1  UNL1        0.1880
      7 S          65.6151   90.7614   14.4300 S.2     1  UNL1       -0.0320
      8 C          67.5646   92.5356   14.8739 C.3     1  UNL1        0.1709
      9 C          67.8349   92.3757   16.3407 C.3     1  UNL1        0.0429
     10 O          68.9499   93.0762   14.6775 O.3     1  UNL1       -0.3745
     11 H          69.0838   93.2902   13.7410 H       1  UNL1        0.2113
     12 C          67.9012   92.0678    9.6253 C.3     1  UNL1        0.0527
     13 C          67.4490   92.4805   10.9946 C.ar    1  UNL1        0.0661
     14 C          66.3075   93.4027   11.3056 C.ar    1  UNL1        0.0513
     15 S          66.2119   93.5356   12.7966 S.2     1  UNL1       -0.0680
     16 C          67.2943   92.6955   13.4072 C.ar    1  UNL1        0.1179
     17 N          68.0588   92.0435   12.2935 N.ar    1  UNL1       -0.2443
     18 C          63.5681   88.0775   14.9020 C.ar    1  UNL1        0.2408
     19 N          63.3642   87.4703   16.2584 N.ar    1  UNL1       -0.1904
     20 C          63.8007   86.0367   16.1948 C.ar    1  UNL1        0.1986
     21 N          64.2744   85.7578   14.7991 N.ar    1  UNL1       -0.2242
     22 N          64.1306   87.0192   14.0002 N.ar    1  UNL1       -0.1319
     23 C          64.7997   84.4477   14.2915 C.3     1  UNL1        0.1601
     24 C          63.8485   83.4023   13.7892 C.ar    1  UNL1        0.0571
     25 C          63.9587   82.9034   12.3789 C.ar    1  UNL1        0.1402
     26 F          65.0202   83.4500   11.4709 F       1  UNL1       -0.2044
     27 C          63.0076   81.8580   11.8767 C.ar    1  UNL1        0.0295
     28 C          61.9461   81.3114   12.7847 C.ar    1  UNL1        0.0046
     29 C          61.8358   81.8102   14.1950 C.ar    1  UNL1        0.0295
     30 C          62.7870   82.8557   14.6973 C.ar    1  UNL1        0.1402
     31 F          62.6768   83.3546   16.1076 F       1  UNL1       -0.2044
@<TRIPOS>BOND
     1    12    13    1
     2    13    14   ar
     3    14    15   ar
     4    15    16   ar
     5    16     8    1
     6     8     9    1
     7     8    10    1
     8     8     3    1
     9     3     4   ar
    10     4     5   ar
    11     5     6   ar
    12     6     1    1
    13     1    18    1
    14    18    19   ar
    15    19    20   ar
    16    20    21   ar
    17    21    23    1
    18    23    24    1
    19    24    25   ar
    20    25    26    1
    21    25    27   ar
    22    27    28   ar
    23    28    29   ar
    24    29    30   ar
    25    30    31    1
    26    21    22   ar
    27     6     7   ar
    28    16    17   ar
    29    17    13   ar
    30     7     3   ar
    31    22    18   ar
    32    30    24   ar
    33    10    11    1
    34     1     2    1
@<TRIPOS>MOLECULE
*****
 31 34 0 0 0
SMALL
GASTEIGER

@<TRIPOS>ATOM
      1 N          63.1370   88.1301   17.3492 N.pl3   1  UNL1       -0.2602
      2 H          63.0709   88.2601   18.3228 H       1  UNL1        0.1570
      3 C          63.9240   90.6532   14.5067 C.ar    1  UNL1        0.1423
      4 N          63.5582   91.5824   15.6259 N.ar    1  UNL1       -0.1413
      5 N          63.2189   90.7504   16.8270 N.ar    1  UNL1       -0.1255
      6 C          63.3750   89.3069   16.4500 C.ar    1  UNL1        0.1880
      7 S          63.8107   89.2468   15.0159 S.2     1  UNL1       -0.0320
      8 C          64.3315   91.0591   13.1213 C.3     1  UNL1        0.1709
      9 C          63.1492   90.3269   12.5591 C.3     1  UNL1        0.0429
     10 O          64.7389   91.4650   11.7359 O.3     1  UNL1       -0.3745
     11 H          65.5475   91.9989   11.7800 H       1  UNL1        0.2113
     12 C          68.6071   92.2451   15.9835 C.3     1  UNL1        0.0527
     13 C          67.4791   92.3365   14.9991 C.ar    1  UNL1        0.0661
     14 C          67.1870   93.4997   14.0982 C.ar    1  UNL1        0.0513
     15 S          65.9724   93.1628   13.2851 S.2     1  UNL1       -0.0680
     16 C          65.5137   91.7913   13.6835 C.ar    1  UNL1        0.1179
     17 N          66.4449   91.2807   14.7428 N.ar    1  UNL1       -0.2443
     18 C          62.9998   86.7554   16.7650 C.ar    1  UNL1        0.2408
     19 N          61.7632   85.9067   16.7888 N.ar    1  UNL1       -0.1904
     20 C          62.0743   84.6148   16.0929 C.ar    1  UNL1        0.1986
     21 N          63.5031   84.6651   15.6390 N.ar    1  UNL1       -0.2242
     22 N          64.0751   85.9880   16.0544 N.ar    1  UNL1       -0.1319
     23 C          64.2319   83.5825   14.8996 C.3     1  UNL1        0.1601
     24 C          63.8502   83.2508   13.4874 C.ar    1  UNL1        0.0571
     25 C          63.5512   84.3514   12.5131 C.ar    1  UNL1        0.1402
     26 F          63.6341   85.7837   12.9509 F       1  UNL1       -0.2044
     27 C          63.1695   84.0197   11.1009 C.ar    1  UNL1        0.0295
     28 C          63.0867   82.5874   10.6631 C.ar    1  UNL1        0.0046
     29 C          63.3856   81.4868   11.6374 C.ar    1  UNL1        0.0295
     30 C          63.7673   81.8185   13.0496 C.ar    1  UNL1        0.1402
     31 F          64.0663   80.7179   14.0240 F       1  UNL1       -0.2044
@<TRIPOS>BOND
     1    12    13    1
     2    13    14   ar
     3    14    15   ar
     4    15    16   ar
     5    16     8    1
     6     8     9    1
     7     8    10    1
     8     8     3    1
     9     3     4   ar
    10     4     5   ar
    11     5     6   ar
    12     6     1    1
    13     1    18    1
    14    18    19   ar
    15    19    20   ar
    16    20    21   ar
    17    21    23    1
    18    23    24    1
    19    24    25   ar
    20    25    26    1
    21    25    27   ar
    22    27    28   ar
    23    28    29   ar
    24    29    30   ar
    25    30    31    1
    26    21    22   ar
    27     6     7   ar
    28    16    17   ar
    29    17    13   ar
    30     7     3   ar
    31    22    18   ar
    32    30    24   ar
    33    10    11    1
    34     1     2    1
@<TRIPOS>MOLECULE
*****
 31 34 0 0 0
SMALL
GASTEIGER

@<TRIPOS>ATOM
      1 N          62.8746   85.3170    9.3731 N.pl3   1  UNL1       -0.2602
      2 H          63.1249   85.2368    8.4244 H       1  UNL1        0.1570
      3 C          63.3347   82.7999   12.2916 C.ar    1  UNL1        0.1423
      4 N          64.4935   82.4374   11.4108 N.ar    1  UNL1       -0.1413
      5 N          64.4621   83.3362   10.2103 N.ar    1  UNL1       -0.1255
      6 C          63.2840   84.2542   10.3492 C.ar    1  UNL1        0.1880
      7 S          62.5872   83.9228   11.6355 S.2     1  UNL1       -0.0320
      8 C          62.9850   82.1531   13.5991 C.3     1  UNL1        0.1709
      9 C          62.5493   80.9163   12.8706 C.3     1  UNL1        0.0429
     10 O          62.6352   81.5062   14.9064 O.3     1  UNL1       -0.3745
     11 H          62.8253   82.1208   15.6324 H       1  UNL1        0.2113
     12 C          63.0697   86.2591   16.9177 C.3     1  UNL1        0.0527
     13 C          63.4595   85.2772   15.8530 C.ar    1  UNL1        0.0661
     14 C          64.7224   85.3088   15.0441 C.ar    1  UNL1        0.0513
     15 S          64.6983   84.1423   14.1013 S.2     1  UNL1       -0.0680
     16 C          63.4206   83.3898   14.3275 C.ar    1  UNL1        0.1179
     17 N          62.6550   84.0912   15.4101 N.ar    1  UNL1       -0.2443
     18 C          62.0837   86.5020    9.8426 C.ar    1  UNL1        0.2408
     19 N          60.6675   86.8223    9.4657 N.ar    1  UNL1       -0.1904
     20 C          60.2788   88.0930   10.1615 C.ar    1  UNL1        0.1986
     21 N          61.4547   88.5581   10.9684 N.ar    1  UNL1       -0.2242
     22 N          62.5702   87.5748   10.7713 N.ar    1  UNL1       -0.1319
     23 C          61.5061   89.7901   11.8224 C.3     1  UNL1        0.1601
     24 C          62.7922   90.5483   11.9686 C.ar    1  UNL1        0.0571
     25 C          63.4801   90.6086   13.3001 C.ar    1  UNL1        0.1402
     26 F          62.8821   89.9107   14.4856 F       1  UNL1       -0.2044
     27 C          64.7661   91.3667   13.4462 C.ar    1  UNL1        0.0295
     28 C          65.3641   92.0646   12.2608 C.ar    1  UNL1        0.0046
     29 C          64.6762   92.0044   10.9292 C.ar    1  UNL1        0.0295
     30 C          63.3902   91.2462   10.7831 C.ar    1  UNL1        0.1402
     31 F          62.7022   91.1859    9.4515 F       1  UNL1       -0.2044
@<TRIPOS>BOND
     1    12    13    1
     2    13    14   ar
     3    14    15   ar
     4    15    16   ar
     5    16     8    1
     6     8     9    1
     7     8    10    1
     8     8     3    1
     9     3     4   ar
    10     4     5   ar
    11     5     6   ar
    12     6     1    1
    13     1    18    1
    14    18    19   ar
    15    19    20   ar
    16    20    21   ar
    17    21    23    1
    18    23    24    1
    19    24    25   ar
    20    25    26    1
    21    25    27   ar
    22    27    28   ar
    23    28    29   ar
    24    29    30   ar
    25    30    31    1
    26    21    22   ar
    27     6     7   ar
    28    16    17   ar
    29    17    13   ar
    30     7     3   ar
    31    22    18   ar
    32    30    24   ar
    33    10    11    1
    34     1     2    1
@<TRIPOS>MOLECULE
*****
 31 34 0 0 0
SMALL
GASTEIGER

@<TRIPOS>ATOM
      1 N          62.7905   85.4181    9.4577 N.pl3   1  UNL1       -0.2602
      2 H          63.0494   85.3614    8.5095 H       1  UNL1        0.1570
      3 C          63.2076   82.8497   12.3377 C.ar    1  UNL1        0.1423
      4 N          64.2720   82.3922   11.3849 N.ar    1  UNL1       -0.1413
      5 N          64.2453   83.2987   10.1901 N.ar    1  UNL1       -0.1255
      6 C          63.1644   84.3164   10.4044 C.ar    1  UNL1        0.1880
      7 S          62.5231   84.0389   11.7317 S.2     1  UNL1       -0.0320
      8 C          62.8845   82.2273   13.6637 C.3     1  UNL1        0.1709
      9 C          62.4044   80.9895   12.9655 C.3     1  UNL1        0.0429
     10 O          62.5614   81.6047   14.9896 O.3     1  UNL1       -0.3745
     11 H          62.7845   82.2252   15.7011 H       1  UNL1        0.2113
     12 C          63.1157   86.4108   16.8768 C.3     1  UNL1        0.0527
     13 C          63.4709   85.3880   15.8387 C.ar    1  UNL1        0.0661
     14 C          64.7359   85.3515   15.0335 C.ar    1  UNL1        0.0513
     15 S          64.6703   84.1631   14.1207 S.2     1  UNL1       -0.0680
     16 C          63.3646   83.4650   14.3618 C.ar    1  UNL1        0.1179
     17 N          62.6234   84.2221   15.4236 N.ar    1  UNL1       -0.2443
     18 C          62.0221   86.6063    9.9555 C.ar    1  UNL1        0.2408
     19 N          60.5824   86.9104    9.6643 N.ar    1  UNL1       -0.1904
     20 C          60.2291   88.1910   10.3607 C.ar    1  UNL1        0.1986
     21 N          61.4504   88.6785   11.0823 N.ar    1  UNL1       -0.2242
     22 N          62.5586   87.6991   10.8319 N.ar    1  UNL1       -0.1319
     23 C          61.5467   89.9263   11.9092 C.3     1  UNL1        0.1601
     24 C          62.8550   90.6511   12.0236 C.ar    1  UNL1        0.0571
     25 C          63.4521   91.3157   10.8188 C.ar    1  UNL1        0.1402
     26 F          62.7409   91.2556    9.4995 F       1  UNL1       -0.2044
     27 C          64.7603   92.0405   10.9333 C.ar    1  UNL1        0.0295
     28 C          65.4714   92.1007   12.2526 C.ar    1  UNL1        0.0046
     29 C          64.8744   91.4361   13.4575 C.ar    1  UNL1        0.0295
     30 C          63.5661   90.7113   13.3430 C.ar    1  UNL1        0.1402
     31 F          62.9690   90.0466   14.5479 F       1  UNL1       -0.2044
@<TRIPOS>BOND
     1    12    13    1
     2    13    14   ar
     3    14    15   ar
     4    15    16   ar
     5    16     8    1
     6     8     9    1
     7     8    10    1
     8     8     3    1
     9     3     4   ar
    10     4     5   ar
    11     5     6   ar
    12     6     1    1
    13     1    18    1
    14    18    19   ar
    15    19    20   ar
    16    20    21   ar
    17    21    23    1
    18    23    24    1
    19    24    25   ar
    20    25    26    1
    21    25    27   ar
    22    27    28   ar
    23    28    29   ar
    24    29    30   ar
    25    30    31    1
    26    21    22   ar
    27     6     7   ar
    28    16    17   ar
    29    17    13   ar
    30     7     3   ar
    31    22    18   ar
    32    30    24   ar
    33    10    11    1
    34     1     2    1
@<TRIPOS>MOLECULE
*****
 31 34 0 0 0
SMALL
GASTEIGER

@<TRIPOS>ATOM
      1 N          61.8432   89.8020   11.4406 N.pl3   1  UNL1       -0.2602
      2 H          60.9271   90.1616   11.4172 H       1  UNL1        0.1570
      3 C          65.0134   91.9842   11.9436 C.ar    1  UNL1        0.1423
      4 N          64.6313   92.3475   10.5393 N.ar    1  UNL1       -0.1413
      5 N          63.3972   91.5743   10.1800 N.ar    1  UNL1       -0.1255
      6 C          63.0166   90.7330   11.3622 C.ar    1  UNL1        0.1880
      7 S          64.0156   90.9864   12.4522 S.2     1  UNL1       -0.0320
      8 C          66.1874   92.5240   12.7055 C.3     1  UNL1        0.1709
      9 C          65.6342   91.9400   13.9715 C.3     1  UNL1        0.0429
     10 O          67.3614   93.0637   13.4674 O.3     1  UNL1       -0.3745
     11 H          67.9517   93.5360   12.8598 H       1  UNL1        0.2113
     12 C          67.4536   95.9429    8.8861 C.3     1  UNL1        0.0527
     13 C          67.3227   94.6795    9.6838 C.ar    1  UNL1        0.0661
     14 C          67.8613   93.3336    9.2985 C.ar    1  UNL1        0.0513
     15 S          67.5017   92.3623   10.3835 S.2     1  UNL1       -0.0680
     16 C          66.7406   93.1079   11.4395 C.ar    1  UNL1        0.1179
     17 N          66.6300   94.5400   11.0070 N.ar    1  UNL1       -0.2443
     18 C          62.0657   88.3229   11.5548 C.ar    1  UNL1        0.2408
     19 N          61.3595   87.2615   10.7643 N.ar    1  UNL1       -0.1904
     20 C          61.8907   85.9283   11.2004 C.ar    1  UNL1        0.1986
     21 N          62.9252   86.1657   12.2605 N.ar    1  UNL1       -0.2242
     22 N          63.0333   87.6456   12.4795 N.ar    1  UNL1       -0.1319
     23 C          63.7131   85.1087   12.9759 C.3     1  UNL1        0.1601
     24 C          63.2163   83.6936   13.0050 C.ar    1  UNL1        0.0571
     25 C          63.5396   82.7618   11.8748 C.ar    1  UNL1        0.1402
     26 F          64.3598   83.2451   10.7156 F       1  UNL1       -0.2044
     27 C          63.0428   81.3468   11.9040 C.ar    1  UNL1        0.0295
     28 C          62.2226   80.8636   13.0632 C.ar    1  UNL1        0.0046
     29 C          61.8993   81.7954   14.1933 C.ar    1  UNL1        0.0295
     30 C          62.3961   83.2103   14.1642 C.ar    1  UNL1        0.1402
     31 F          62.0728   84.1422   15.2943 F       1  UNL1       -0.2044
@<TRIPOS>BOND
     1    12    13    1
     2    13    14   ar
     3    14    15   ar
     4    15    16   ar
     5    16     8    1
     6     8     9    1
     7     8    10    1
     8     8     3    1
     9     3     4   ar
    10     4     5   ar
    11     5     6   ar
    12     6     1    1
    13     1    18    1
    14    18    19   ar
    15    19    20   ar
    16    20    21   ar
    17    21    23    1
    18    23    24    1
    19    24    25   ar
    20    25    26    1
    21    25    27   ar
    22    27    28   ar
    23    28    29   ar
    24    29    30   ar
    25    30    31    1
    26    21    22   ar
    27     6     7   ar
    28    16    17   ar
    29    17    13   ar
    30     7     3   ar
    31    22    18   ar
    32    30    24   ar
    33    10    11    1
    34     1     2    1
@<TRIPOS>MOLECULE
*****
 31 34 0 0 0
SMALL
GASTEIGER

@<TRIPOS>ATOM
      1 N          62.1907   85.5827    9.6028 N.pl3   1  UNL1       -0.2602
      2 H          61.8962   85.2132    8.7390 H       1  UNL1        0.1570
      3 C          63.8194   83.7371   12.6038 C.ar    1  UNL1        0.1423
      4 N          64.5223   83.0881   11.4484 N.ar    1  UNL1       -0.1413
      5 N          63.9977   83.7005   10.1836 N.ar    1  UNL1       -0.1255
      6 C          62.9706   84.7279   10.5573 C.ar    1  UNL1        0.1880
      7 S          62.8605   84.7505   12.0531 S.2     1  UNL1       -0.0320
      8 C          64.0374   83.4269   14.0551 C.3     1  UNL1        0.1709
      9 C          64.9554   84.6077   14.1695 C.3     1  UNL1        0.0429
     10 O          64.2554   83.1168   15.5065 O.3     1  UNL1       -0.3745
     11 H          63.7426   82.3301   15.7496 H       1  UNL1        0.2113
     12 C          59.7277   80.3813   14.2296 C.3     1  UNL1        0.0527
     13 C          61.1384   80.8462   14.0209 C.ar    1  UNL1        0.0661
     14 C          62.2750   80.0122   13.5085 C.ar    1  UNL1        0.0513
     15 S          63.4993   80.8774   13.4589 S.2     1  UNL1       -0.0680
     16 C          63.1194   82.2462   13.9408 C.ar    1  UNL1        0.1179
     17 N          61.6603   82.2269   14.2881 N.ar    1  UNL1       -0.2443
     18 C          61.8594   87.0003    9.9642 C.ar    1  UNL1        0.2408
     19 N          60.9364   87.9101    9.2090 N.ar    1  UNL1       -0.1904
     20 C          60.8995   89.2291    9.9224 C.ar    1  UNL1        0.1986
     21 N          61.7997   89.1345   11.1185 N.ar    1  UNL1       -0.2242
     22 N          62.3930   87.7570   11.1443 N.ar    1  UNL1       -0.1319
     23 C          62.0609   90.2257   12.1139 C.3     1  UNL1        0.1601
     24 C          63.3784   90.9429   12.1122 C.ar    1  UNL1        0.0571
     25 C          64.2185   90.9712   13.3545 C.ar    1  UNL1        0.1402
     26 F          63.7413   90.2823   14.5985 F       1  UNL1       -0.2044
     27 C          65.5359   91.6884   13.3527 C.ar    1  UNL1        0.0295
     28 C          66.0131   92.3774   12.1087 C.ar    1  UNL1        0.0046
     29 C          65.1730   92.3491   10.8664 C.ar    1  UNL1        0.0295
     30 C          63.8556   91.6319   10.8682 C.ar    1  UNL1        0.1402
     31 F          63.0154   91.6035    9.6259 F       1  UNL1       -0.2044
@<TRIPOS>BOND
     1    12    13    1
     2    13    14   ar
     3    14    15   ar
     4    15    16   ar
     5    16     8    1
     6     8     9    1
     7     8    10    1
     8     8     3    1
     9     3     4   ar
    10     4     5   ar
    11     5     6   ar
    12     6     1    1
    13     1    18    1
    14    18    19   ar
    15    19    20   ar
    16    20    21   ar
    17    21    23    1
    18    23    24    1
    19    24    25   ar
    20    25    26    1
    21    25    27   ar
    22    27    28   ar
    23    28    29   ar
    24    29    30   ar
    25    30    31    1
    26    21    22   ar
    27     6     7   ar
    28    16    17   ar
    29    17    13   ar
    30     7     3   ar
    31    22    18   ar
    32    30    24   ar
    33    10    11    1
    34     1     2    1
@<TRIPOS>MOLECULE
*****
 31 34 0 0 0
SMALL
GASTEIGER

@<TRIPOS>ATOM
      1 N          63.6810   87.2852   16.0928 N.pl3   1  UNL1       -0.2602
      2 H          63.4963   87.1033   17.0425 H       1  UNL1        0.1570
      3 C          64.1852   90.6452   14.2161 C.ar    1  UNL1        0.1423
      4 N          63.4825   91.1092   15.4575 N.ar    1  UNL1       -0.1413
      5 N          63.2081   89.9070   16.3115 N.ar    1  UNL1       -0.1255
      6 C          63.7412   88.7000   15.5980 C.ar    1  UNL1        0.1880
      7 S          64.3451   89.1563   14.3030 S.2     1  UNL1       -0.0320
      8 C          64.6469   91.5171   13.0862 C.3     1  UNL1        0.1709
      9 C          65.7726   92.0245   13.9379 C.3     1  UNL1        0.0429
     10 O          65.1086   92.3891   11.9564 O.3     1  UNL1       -0.3745
     11 H          64.5218   92.2678   11.1936 H       1  UNL1        0.2113
     12 C          60.1013   89.2979   11.5722 C.3     1  UNL1        0.0527
     13 C          61.4317   89.9897   11.5386 C.ar    1  UNL1        0.0661
     14 C          62.1459   90.4684   10.3095 C.ar    1  UNL1        0.0513
     15 S          63.4372   91.0989   10.7396 S.2     1  UNL1       -0.0680
     16 C          63.5212   91.0098   12.2346 C.ar    1  UNL1        0.1179
     17 N          62.2817   90.3243   12.7284 N.ar    1  UNL1       -0.2443
     18 C          63.9021   86.1476   15.1404 C.ar    1  UNL1        0.2408
     19 N          65.1152   85.2669   15.0855 N.ar    1  UNL1       -0.1904
     20 C          64.9118   84.2659   13.9870 C.ar    1  UNL1        0.1986
     21 N          63.5731   84.5280   13.3630 N.ar    1  UNL1       -0.2242
     22 N          62.9491   85.6909   14.0759 N.ar    1  UNL1       -0.1319
     23 C          62.9651   83.7618   12.2259 C.3     1  UNL1        0.1601
     24 C          62.7983   84.4147   10.8857 C.ar    1  UNL1        0.0571
     25 C          63.6033   83.9375    9.7135 C.ar    1  UNL1        0.1402
     26 F          64.5752   82.8073    9.8813 F       1  UNL1       -0.2044
     27 C          63.4364   84.5905    8.3734 C.ar    1  UNL1        0.0295
     28 C          62.4645   85.7206    8.2056 C.ar    1  UNL1        0.0046
     29 C          61.6595   86.1979    9.3779 C.ar    1  UNL1        0.0295
     30 C          61.8264   85.5449   10.7179 C.ar    1  UNL1        0.1402
     31 F          61.0214   86.0221   11.8903 F       1  UNL1       -0.2044
@<TRIPOS>BOND
     1    12    13    1
     2    13    14   ar
     3    14    15   ar
     4    15    16   ar
     5    16     8    1
     6     8     9    1
     7     8    10    1
     8     8     3    1
     9     3     4   ar
    10     4     5   ar
    11     5     6   ar
    12     6     1    1
    13     1    18    1
    14    18    19   ar
    15    19    20   ar
    16    20    21   ar
    17    21    23    1
    18    23    24    1
    19    24    25   ar
    20    25    26    1
    21    25    27   ar
    22    27    28   ar
    23    28    29   ar
    24    29    30   ar
    25    30    31    1
    26    21    22   ar
    27     6     7   ar
    28    16    17   ar
    29    17    13   ar
    30     7     3   ar
    31    22    18   ar
    32    30    24   ar
    33    10    11    1
    34     1     2    1
@<TRIPOS>MOLECULE
*****
 31 34 0 0 0
SMALL
GASTEIGER

@<TRIPOS>ATOM
      1 N          62.3160   90.9257   12.2015 N.pl3   1  UNL1       -0.2602
      2 H          61.5943   91.5916   12.1303 H       1  UNL1        0.1570
      3 C          65.7793   91.6908   13.7780 C.ar    1  UNL1        0.1423
      4 N          64.9219   91.5763   15.0035 N.ar    1  UNL1       -0.1413
      5 N          63.5202   91.2758   14.5621 N.ar    1  UNL1       -0.1255
      6 C          63.5113   91.2045   13.0638 C.ar    1  UNL1        0.1880
      7 S          64.9075   91.4610   12.5792 S.2     1  UNL1       -0.0320
      8 C          67.2503   91.9836   13.7554 C.3     1  UNL1        0.1709
      9 C          67.4401   91.1234   14.9695 C.3     1  UNL1        0.0429
     10 O          68.7213   92.2764   13.7329 O.3     1  UNL1       -0.3745
     11 H          68.9226   92.8640   12.9879 H       1  UNL1        0.2113
     12 C          67.5389   93.8385    8.8203 C.3     1  UNL1        0.0527
     13 C          67.1931   93.6965   10.2729 C.ar    1  UNL1        0.0661
     14 C          66.3435   94.6386   11.0733 C.ar    1  UNL1        0.0513
     15 S          66.2615   94.1117   12.4753 S.2     1  UNL1       -0.0680
     16 C          67.0605   92.8438   12.5414 C.ar    1  UNL1        0.1179
     17 N          67.6361   92.5872   11.1802 N.ar    1  UNL1       -0.2443
     18 C          62.2203   89.6325   11.4476 C.ar    1  UNL1        0.2408
     19 N          62.5808   89.4231   10.0066 N.ar    1  UNL1       -0.1904
     20 C          62.3306   87.9828    9.6708 C.ar    1  UNL1        0.1986
     21 N          61.8153   87.3020   10.9041 N.ar    1  UNL1       -0.2242
     22 N          61.7472   88.3215   12.0022 N.ar    1  UNL1       -0.1319
     23 C          61.4351   85.8556   11.0192 C.3     1  UNL1        0.1601
     24 C          62.5005   84.8085   11.1554 C.ar    1  UNL1        0.0571
     25 C          62.8340   84.2492   12.5067 C.ar    1  UNL1        0.1402
     26 F          62.1020   84.7370   13.7218 F       1  UNL1       -0.2044
     27 C          63.8994   83.2022   12.6429 C.ar    1  UNL1        0.0295
     28 C          64.6313   82.7144   11.4279 C.ar    1  UNL1        0.0046
     29 C          64.2978   83.2737   10.0766 C.ar    1  UNL1        0.0295
     30 C          63.2325   84.3207    9.9404 C.ar    1  UNL1        0.1402
     31 F          62.8989   84.8800    8.5891 F       1  UNL1       -0.2044
@<TRIPOS>BOND
     1    12    13    1
     2    13    14   ar
     3    14    15   ar
     4    15    16   ar
     5    16     8    1
     6     8     9    1
     7     8    10    1
     8     8     3    1
     9     3     4   ar
    10     4     5   ar
    11     5     6   ar
    12     6     1    1
    13     1    18    1
    14    18    19   ar
    15    19    20   ar
    16    20    21   ar
    17    21    23    1
    18    23    24    1
    19    24    25   ar
    20    25    26    1
    21    25    27   ar
    22    27    28   ar
    23    28    29   ar
    24    29    30   ar
    25    30    31    1
    26    21    22   ar
    27     6     7   ar
    28    16    17   ar
    29    17    13   ar
    30     7     3   ar
    31    22    18   ar
    32    30    24   ar
    33    10    11    1
    34     1     2    1
