@<TRIPOS>MOLECULE
*****
 20 23 0 0 0
SMALL
GASTEIGER

@<TRIPOS>ATOM
      1 C          61.3860   88.3755    9.5401 C.3     1  UNL1        0.0364
      2 C          60.1825   88.6253    8.6804 C.3     1  UNL1        0.0236
      3 C          58.9896   88.5654    7.7730 C.3     1  UNL1        0.0690
      4 N          58.7887   87.1360    7.3652 N.3     1  UNL1       -0.2972
      5 C          59.8574   86.3124    8.0206 C.3     1  UNL1        0.0727
      6 C          60.7188   87.2329    8.8334 C.3     1  UNL1        0.0371
      7 H          58.8600   87.0520    6.3512 H       1  UNL1        0.1233
      8 C          61.6481   86.1705    9.3411 C.ar    1  UNL1       -0.0214
      9 C          62.6233   85.5181    8.4066 C.ar    1  UNL1       -0.0042
     10 C          63.5526   84.4557    8.9142 C.ar    1  UNL1       -0.0003
     11 C          63.5068   84.0457   10.3564 C.ar    1  UNL1       -0.0000
     12 C          64.4361   82.9833   10.8640 C.ar    1  UNL1       -0.0000
     13 C          64.3901   82.5733   12.3061 C.ar    1  UNL1       -0.0000
     14 C          63.4149   83.2257   13.2406 C.ar    1  UNL1       -0.0000
     15 C          62.4856   84.2881   12.7330 C.ar    1  UNL1       -0.0000
     16 C          62.5315   84.6981   11.2909 C.ar    1  UNL1       -0.0003
     17 C          61.6022   85.7605   10.7832 C.ar    1  UNL1       -0.0042
     18 C          62.4660   88.8909   10.4445 C.3     1  UNL1        0.1426
     19 C          63.1671   89.7351   12.7995 C.3     1  UNL1        0.1741
     20 O          62.2443   88.9364   11.9273 O.3     1  UNL1       -0.3511
@<TRIPOS>BOND
     1    19    20    1
     2    20    18    1
     3     1    18    1
     4     1     2    1
     5     2     3    1
     6     3     4    1
     7     4     5    1
     8     5     6    1
     9     6     8    1
    10     8     9   ar
    11     9    10   ar
    12    10    11   ar
    13    11    12   ar
    14    12    13   ar
    15    13    14   ar
    16    14    15   ar
    17    15    16   ar
    18    16    17   ar
    19     6     1    1
    20    17     8   ar
    21     6     2    1
    22    16    11   ar
    23     4     7    1
@<TRIPOS>MOLECULE
*****
 20 23 0 0 0
SMALL
GASTEIGER

@<TRIPOS>ATOM
      1 C          66.1859   91.7784   14.0590 C.3     1  UNL1        0.0364
      2 C          65.9538   92.3282   12.6828 C.3     1  UNL1        0.0236
      3 C          65.4688   92.6926   11.3109 C.3     1  UNL1        0.0690
      4 N          64.2106   91.9209   11.0439 N.3     1  UNL1       -0.2972
      5 C          63.9180   91.0795   12.2508 C.3     1  UNL1        0.0727
      6 C          64.9953   91.3312   13.2635 C.3     1  UNL1        0.0371
      7 H          64.3380   91.3228   10.2276 H       1  UNL1        0.1233
      8 C          64.4538   90.3963   14.3042 C.ar    1  UNL1       -0.0214
      9 C          63.7450   90.9432   15.5077 C.ar    1  UNL1       -0.0042
     10 C          63.2036   90.0084   16.5483 C.ar    1  UNL1       -0.0003
     11 C          63.3708   88.5266   16.3853 C.ar    1  UNL1       -0.0000
     12 C          62.8293   87.5918   17.4259 C.ar    1  UNL1       -0.0000
     13 C          62.9966   86.1101   17.2629 C.ar    1  UNL1       -0.0000
     14 C          63.7054   85.5633   16.0594 C.ar    1  UNL1       -0.0000
     15 C          64.2469   86.4981   15.0188 C.ar    1  UNL1       -0.0000
     16 C          64.0796   87.9798   15.1818 C.ar    1  UNL1       -0.0003
     17 C          64.6211   88.9147   14.1412 C.ar    1  UNL1       -0.0042
     18 C          67.0073   91.7191   15.3126 C.3     1  UNL1        0.1426
     19 C          68.7070   93.6324   15.7605 C.3     1  UNL1        0.1741
     20 O          67.3801   92.9851   16.0256 O.3     1  UNL1       -0.3511
@<TRIPOS>BOND
     1    19    20    1
     2    20    18    1
     3     1    18    1
     4     1     2    1
     5     2     3    1
     6     3     4    1
     7     4     5    1
     8     5     6    1
     9     6     8    1
    10     8     9   ar
    11     9    10   ar
    12    10    11   ar
    13    11    12   ar
    14    12    13   ar
    15    13    14   ar
    16    14    15   ar
    17    15    16   ar
    18    16    17   ar
    19     6     1    1
    20    17     8   ar
    21     6     2    1
    22    16    11   ar
    23     4     7    1
@<TRIPOS>MOLECULE
*****
 20 23 0 0 0
SMALL
GASTEIGER

@<TRIPOS>ATOM
      1 C          60.0857   88.0040    9.6361 C.3     1  UNL1        0.0364
      2 C          60.1989   89.3527   10.2829 C.3     1  UNL1        0.0236
      3 C          60.5774   90.5852   11.0496 C.3     1  UNL1        0.0690
      4 N          61.8706   90.3110   11.7585 N.3     1  UNL1       -0.2972
      5 C          62.2912   88.9092   11.4300 C.3     1  UNL1        0.0727
      6 C          61.2580   88.3170   10.5180 C.3     1  UNL1        0.0371
      7 H          61.7401   90.4062   12.7657 H       1  UNL1        0.1233
      8 C          61.9238   86.9805   10.3738 C.ar    1  UNL1       -0.0214
      9 C          62.5130   86.5745    9.0555 C.ar    1  UNL1       -0.0042
     10 C          63.1787   85.2381    8.9112 C.ar    1  UNL1       -0.0003
     11 C          63.2552   84.3077   10.0854 C.ar    1  UNL1       -0.0000
     12 C          63.9209   82.9713    9.9411 C.ar    1  UNL1       -0.0000
     13 C          63.9974   82.0409   11.1152 C.ar    1  UNL1       -0.0000
     14 C          63.4081   82.4469   12.4335 C.ar    1  UNL1       -0.0000
     15 C          62.7424   83.7833   12.5778 C.ar    1  UNL1       -0.0000
     16 C          62.6660   84.7137   11.4037 C.ar    1  UNL1       -0.0003
     17 C          62.0002   86.0502   11.5479 C.ar    1  UNL1       -0.0042
     18 C          59.3435   87.0448    8.7535 C.3     1  UNL1        0.1426
     19 C          59.1113   88.8477    6.8973 C.3     1  UNL1        0.1741
     20 O          58.6987   87.5331    7.4903 O.3     1  UNL1       -0.3511
@<TRIPOS>BOND
     1    19    20    1
     2    20    18    1
     3     1    18    1
     4     1     2    1
     5     2     3    1
     6     3     4    1
     7     4     5    1
     8     5     6    1
     9     6     8    1
    10     8     9   ar
    11     9    10   ar
    12    10    11   ar
    13    11    12   ar
    14    12    13   ar
    15    13    14   ar
    16    14    15   ar
    17    15    16   ar
    18    16    17   ar
    19     6     1    1
    20    17     8   ar
    21     6     2    1
    22    16    11   ar
    23     4     7    1
@<TRIPOS>MOLECULE
*****
 20 23 0 0 0
SMALL
GASTEIGER

@<TRIPOS>ATOM
      1 C          61.2891   88.8858    9.3241 C.3     1  UNL1        0.0364
      2 C          60.1894   89.0076    8.3112 C.3     1  UNL1        0.0236
      3 C          59.0608   88.8201    7.3411 C.3     1  UNL1        0.0690
      4 N          58.6924   87.3660    7.3341 N.3     1  UNL1       -0.2972
      5 C          59.5934   86.6549    8.2998 C.3     1  UNL1        0.0727
      6 C          60.5185   87.6695    8.9037 C.3     1  UNL1        0.0371
      7 H          58.8170   86.9819    6.3974 H       1  UNL1        0.1233
      8 C          61.2583   86.7040    9.7816 C.ar    1  UNL1       -0.0214
      9 C          61.0671   86.7446   11.2688 C.ar    1  UNL1       -0.0042
     10 C          61.8069   85.7792   12.1467 C.ar    1  UNL1       -0.0003
     11 C          62.7380   84.7733   11.5374 C.ar    1  UNL1       -0.0000
     12 C          63.4778   83.8079   12.4153 C.ar    1  UNL1       -0.0000
     13 C          64.4088   82.8021   11.8060 C.ar    1  UNL1       -0.0000
     14 C          64.6001   82.7615   10.3188 C.ar    1  UNL1       -0.0000
     15 C          63.8603   83.7269    9.4409 C.ar    1  UNL1       -0.0000
     16 C          62.9293   84.7327   10.0502 C.ar    1  UNL1       -0.0003
     17 C          62.1894   85.6982    9.1723 C.ar    1  UNL1       -0.0042
     18 C          62.3688   89.5178   10.1516 C.3     1  UNL1        0.1426
     19 C          62.9722   89.9580   12.6401 C.3     1  UNL1        0.1741
     20 O          62.0352   90.1273   11.4810 O.3     1  UNL1       -0.3511
@<TRIPOS>BOND
     1    19    20    1
     2    20    18    1
     3     1    18    1
     4     1     2    1
     5     2     3    1
     6     3     4    1
     7     4     5    1
     8     5     6    1
     9     6     8    1
    10     8     9   ar
    11     9    10   ar
    12    10    11   ar
    13    11    12   ar
    14    12    13   ar
    15    13    14   ar
    16    14    15   ar
    17    15    16   ar
    18    16    17   ar
    19     6     1    1
    20    17     8   ar
    21     6     2    1
    22    16    11   ar
    23     4     7    1
@<TRIPOS>MOLECULE
*****
 20 23 0 0 0
SMALL
GASTEIGER

@<TRIPOS>ATOM
      1 C          67.4141   92.0827   13.3315 C.3     1  UNL1        0.0364
      2 C          67.7166   92.8164   14.6044 C.3     1  UNL1        0.0236
      3 C          67.7361   93.4476   15.9650 C.3     1  UNL1        0.0690
      4 N          66.4454   93.1106   16.6508 N.3     1  UNL1       -0.2972
      5 C          65.6282   92.2711   15.7141 C.3     1  UNL1        0.0727
      6 C          66.4139   92.0894   14.4494 C.3     1  UNL1        0.0371
      7 H          65.9403   93.9670   16.8782 H       1  UNL1        0.1233
      8 C          65.3876   91.2512   13.7462 C.ar    1  UNL1       -0.0214
      9 C          64.9577   89.9407   14.3359 C.ar    1  UNL1       -0.0042
     10 C          63.9314   89.1026   13.6328 C.ar    1  UNL1       -0.0003
     11 C          63.3350   89.5750   12.3401 C.ar    1  UNL1       -0.0000
     12 C          62.3087   88.7369   11.6370 C.ar    1  UNL1       -0.0000
     13 C          61.7123   89.2094   10.3444 C.ar    1  UNL1       -0.0000
     14 C          62.1421   90.5200    9.7548 C.ar    1  UNL1       -0.0000
     15 C          63.1684   91.3581   10.4578 C.ar    1  UNL1       -0.0000
     16 C          63.7648   90.8856   11.7505 C.ar    1  UNL1       -0.0003
     17 C          64.7911   91.7237   12.4536 C.ar    1  UNL1       -0.0042
     18 C          67.8170   91.6554   11.9513 C.3     1  UNL1        0.1426
     19 C          68.5266   92.3523    9.5511 C.3     1  UNL1        0.1741
     20 O          67.7820   92.6407   10.8209 O.3     1  UNL1       -0.3511
@<TRIPOS>BOND
     1    19    20    1
     2    20    18    1
     3     1    18    1
     4     1     2    1
     5     2     3    1
     6     3     4    1
     7     4     5    1
     8     5     6    1
     9     6     8    1
    10     8     9   ar
    11     9    10   ar
    12    10    11   ar
    13    11    12   ar
    14    12    13   ar
    15    13    14   ar
    16    14    15   ar
    17    15    16   ar
    18    16    17   ar
    19     6     1    1
    20    17     8   ar
    21     6     2    1
    22    16    11   ar
    23     4     7    1
@<TRIPOS>MOLECULE
*****
 20 23 0 0 0
SMALL
GASTEIGER

@<TRIPOS>ATOM
      1 C          63.7130   82.7338   11.8595 C.3     1  UNL1        0.0364
      2 C          63.0519   81.5269   12.4565 C.3     1  UNL1        0.0236
      3 C          62.3280   80.5134   13.2925 C.3     1  UNL1        0.0690
      4 N          61.8898   81.1855   14.5598 N.3     1  UNL1       -0.2972
      5 C          62.3428   82.6145   14.5071 C.3     1  UNL1        0.0727
      6 C          63.0609   82.8255   13.2072 C.3     1  UNL1        0.0371
      7 H          62.3108   80.7183   15.3628 H       1  UNL1        0.1233
      8 C          63.3777   84.2737   13.4363 C.ar    1  UNL1       -0.0214
      9 C          64.2258   84.6802   14.6048 C.ar    1  UNL1       -0.0042
     10 C          64.5425   86.1283   14.8339 C.ar    1  UNL1       -0.0003
     11 C          64.0111   87.1701   13.8945 C.ar    1  UNL1       -0.0000
     12 C          64.3278   88.6182   14.1236 C.ar    1  UNL1       -0.0000
     13 C          63.7964   89.6598   13.1842 C.ar    1  UNL1       -0.0000
     14 C          62.9483   89.2533   12.0156 C.ar    1  UNL1       -0.0000
     15 C          62.6316   87.8052   11.7865 C.ar    1  UNL1       -0.0000
     16 C          63.1630   86.7636   12.7260 C.ar    1  UNL1       -0.0003
     17 C          62.8463   85.3153   12.4969 C.ar    1  UNL1       -0.0042
     18 C          64.4711   83.3775   10.7366 C.3     1  UNL1        0.1426
     19 C          63.1984   84.8726    9.0351 C.3     1  UNL1        0.1741
     20 O          63.8196   83.5563    9.3973 O.3     1  UNL1       -0.3511
@<TRIPOS>BOND
     1    19    20    1
     2    20    18    1
     3     1    18    1
     4     1     2    1
     5     2     3    1
     6     3     4    1
     7     4     5    1
     8     5     6    1
     9     6     8    1
    10     8     9   ar
    11     9    10   ar
    12    10    11   ar
    13    11    12   ar
    14    12    13   ar
    15    13    14   ar
    16    14    15   ar
    17    15    16   ar
    18    16    17   ar
    19     6     1    1
    20    17     8   ar
    21     6     2    1
    22    16    11   ar
    23     4     7    1
@<TRIPOS>MOLECULE
*****
 20 23 0 0 0
SMALL
GASTEIGER

@<TRIPOS>ATOM
      1 C          62.5270   83.6022   14.5898 C.3     1  UNL1        0.0364
      2 C          62.9566   84.4882   15.7214 C.3     1  UNL1        0.0236
      3 C          63.4961   85.5579   16.6239 C.3     1  UNL1        0.0690
      4 N          64.1117   86.6223   15.7647 N.3     1  UNL1       -0.2972
      5 C          63.9526   86.2103   14.3312 C.3     1  UNL1        0.0727
      6 C          63.2387   84.8914   14.3045 C.3     1  UNL1        0.0371
      7 H          65.1019   86.7187   15.9893 H       1  UNL1        0.1233
      8 C          63.2284   84.7489   12.8113 C.ar    1  UNL1       -0.0214
      9 C          64.1987   83.8230   12.1395 C.ar    1  UNL1       -0.0042
     10 C          64.1885   83.6805   10.6464 C.ar    1  UNL1       -0.0003
     11 C          63.2079   84.4639    9.8249 C.ar    1  UNL1       -0.0000
     12 C          63.1977   84.3214    8.3317 C.ar    1  UNL1       -0.0000
     13 C          62.2171   85.1048    7.5103 C.ar    1  UNL1       -0.0000
     14 C          61.2468   86.0307    8.1821 C.ar    1  UNL1       -0.0000
     15 C          61.2571   86.1732    9.6752 C.ar    1  UNL1       -0.0000
     16 C          62.2376   85.3898   10.4966 C.ar    1  UNL1       -0.0003
     17 C          62.2479   85.5323   11.9899 C.ar    1  UNL1       -0.0042
     18 C          61.8680   82.3463   14.1013 C.3     1  UNL1        0.1426
     19 C          62.6423   79.9911   13.3244 C.3     1  UNL1        0.1741
     20 O          62.4759   81.0107   14.4120 O.3     1  UNL1       -0.3511
@<TRIPOS>BOND
     1    19    20    1
     2    20    18    1
     3     1    18    1
     4     1     2    1
     5     2     3    1
     6     3     4    1
     7     4     5    1
     8     5     6    1
     9     6     8    1
    10     8     9   ar
    11     9    10   ar
    12    10    11   ar
    13    11    12   ar
    14    12    13   ar
    15    13    14   ar
    16    14    15   ar
    17    15    16   ar
    18    16    17   ar
    19     6     1    1
    20    17     8   ar
    21     6     2    1
    22    16    11   ar
    23     4     7    1
@<TRIPOS>MOLECULE
*****
 20 23 0 0 0
SMALL
GASTEIGER

@<TRIPOS>ATOM
      1 C          60.2329   89.2744   10.4176 C.3     1  UNL1        0.0364
      2 C          60.1285   87.9813    9.6646 C.3     1  UNL1        0.0236
      3 C          60.3362   86.6837    8.9414 C.3     1  UNL1        0.0690
      4 N          61.8075   86.3920    8.9260 N.3     1  UNL1       -0.2972
      5 C          62.5091   87.5093    9.6398 C.3     1  UNL1        0.0727
      6 C          61.4714   88.4915   10.0962 C.3     1  UNL1        0.0371
      7 H          62.1389   86.3343    7.9631 H       1  UNL1        0.1233
      8 C          62.4319   89.4451   10.7429 C.ar    1  UNL1       -0.0214
      9 C          62.8839   90.6701   10.0046 C.ar    1  UNL1       -0.0042
     10 C          63.8443   91.6238   10.6511 C.ar    1  UNL1       -0.0003
     11 C          64.3528   91.3525   12.0360 C.ar    1  UNL1       -0.0000
     12 C          65.3132   92.3061   12.6826 C.ar    1  UNL1       -0.0000
     13 C          65.8216   92.0348   14.0674 C.ar    1  UNL1       -0.0000
     14 C          65.3696   90.8098   14.8057 C.ar    1  UNL1       -0.0000
     15 C          64.4092   89.8562   14.1592 C.ar    1  UNL1       -0.0000
     16 C          63.9008   90.1275   12.7743 C.ar    1  UNL1       -0.0003
     17 C          62.9403   89.1738   12.1277 C.ar    1  UNL1       -0.0042
     18 C          59.5781   90.4730   11.0378 C.3     1  UNL1        0.1426
     19 C          58.5204   88.9663   12.8711 C.3     1  UNL1        0.1741
     20 O          58.6400   90.3001   12.1955 O.3     1  UNL1       -0.3511
@<TRIPOS>BOND
     1    19    20    1
     2    20    18    1
     3     1    18    1
     4     1     2    1
     5     2     3    1
     6     3     4    1
     7     4     5    1
     8     5     6    1
     9     6     8    1
    10     8     9   ar
    11     9    10   ar
    12    10    11   ar
    13    11    12   ar
    14    12    13   ar
    15    13    14   ar
    16    14    15   ar
    17    15    16   ar
    18    16    17   ar
    19     6     1    1
    20    17     8   ar
    21     6     2    1
    22    16    11   ar
    23     4     7    1
@<TRIPOS>MOLECULE
*****
 20 23 0 0 0
SMALL
GASTEIGER

@<TRIPOS>ATOM
      1 C          60.3185   89.2858   10.0326 C.3     1  UNL1        0.0364
      2 C          60.2225   88.0495    9.1886 C.3     1  UNL1        0.0236
      3 C          60.4239   86.7689    8.4338 C.3     1  UNL1        0.0690
      4 N          61.8262   86.2989    8.6843 N.3     1  UNL1       -0.2972
      5 C          62.4914   87.2890    9.5939 C.3     1  UNL1        0.0727
      6 C          61.5003   88.3708    9.9055 C.3     1  UNL1        0.0371
      7 H          62.3352   86.2428    7.8022 H       1  UNL1        0.1233
      8 C          62.4126   89.1696   10.7885 C.ar    1  UNL1       -0.0214
      9 C          62.6637   88.7303   12.2005 C.ar    1  UNL1       -0.0042
     10 C          63.5760   89.5290   13.0836 C.ar    1  UNL1       -0.0003
     11 C          64.2372   90.7672   12.5545 C.ar    1  UNL1       -0.0000
     12 C          65.1495   91.5659   13.4375 C.ar    1  UNL1       -0.0000
     13 C          65.8106   92.8040   12.9084 C.ar    1  UNL1       -0.0000
     14 C          65.5595   93.2434   11.4964 C.ar    1  UNL1       -0.0000
     15 C          64.6473   92.4446   10.6134 C.ar    1  UNL1       -0.0000
     16 C          63.9861   91.2065   11.1424 C.ar    1  UNL1       -0.0003
     17 C          63.0738   90.4077   10.2594 C.ar    1  UNL1       -0.0042
     18 C          59.6915   90.5278   10.5932 C.3     1  UNL1        0.1426
     19 C          58.8350   89.1754   12.6396 C.3     1  UNL1        0.1741
     20 O          58.9902   90.4815   11.9184 O.3     1  UNL1       -0.3511
@<TRIPOS>BOND
     1    19    20    1
     2    20    18    1
     3     1    18    1
     4     1     2    1
     5     2     3    1
     6     3     4    1
     7     4     5    1
     8     5     6    1
     9     6     8    1
    10     8     9   ar
    11     9    10   ar
    12    10    11   ar
    13    11    12   ar
    14    12    13   ar
    15    13    14   ar
    16    14    15   ar
    17    15    16   ar
    18    16    17   ar
    19     6     1    1
    20    17     8   ar
    21     6     2    1
    22    16    11   ar
    23     4     7    1
