@<TRIPOS>MOLECULE
*****
 24 27 0 0 0
SMALL
GASTEIGER

@<TRIPOS>ATOM
      1 C          63.0135   90.1847   10.9191 C.ar    1  UNL1       -0.0000
      2 C          63.5825   90.1293   12.3059 C.ar    1  UNL1       -0.0003
      3 C          64.6302   91.1169   12.7266 C.ar    1  UNL1       -0.0021
      4 C          65.1089   92.1598   11.7606 C.ar    1  UNL1        0.0025
      5 C          64.5398   92.2152   10.3739 C.ar    1  UNL1       -0.0021
      6 C          63.4921   91.2276    9.9532 C.ar    1  UNL1       -0.0003
      7 C          59.8703   87.2220    9.6569 C.ar    1  UNL1        0.0000
      8 C          59.8523   88.6161    9.1035 C.ar    1  UNL1        0.0000
      9 C          60.9000   89.6036    9.5243 C.ar    1  UNL1       -0.0000
     10 C          61.9657   89.1971   10.4984 C.ar    1  UNL1       -0.0000
     11 C          61.9837   87.8031   11.0518 C.ar    1  UNL1       -0.0000
     12 C          60.9360   86.8156   10.6310 C.ar    1  UNL1        0.0000
     13 C          66.1566   93.1473   12.1814 C.3     1  UNL1        0.1321
     14 C          66.4930   94.3082   11.2930 C.ar    1  UNL1        0.0025
     15 C          67.2506   94.0822   10.0182 C.ar    1  UNL1       -0.0021
     16 C          67.5870   95.2430    9.1298 C.ar    1  UNL1       -0.0003
     17 C          67.1657   96.6299    9.5161 C.ar    1  UNL1       -0.0000
     18 C          66.4081   96.8559   10.7908 C.ar    1  UNL1       -0.0003
     19 C          66.0717   95.6950   11.6793 C.ar    1  UNL1       -0.0021
     20 N          66.8680   92.9741   13.4905 N.ar    1  UNL1       -0.3020
     21 C          66.5466   93.6883   14.7699 C.ar    1  UNL1        0.0985
     22 C          67.5056   93.2118   15.8203 C.ar    1  UNL1        0.1193
     23 N          68.4197   92.2031   15.1902 N.ar    1  UNL1       -0.2223
     24 C          68.0256   92.0562   13.7502 C.ar    1  UNL1        0.1791
@<TRIPOS>BOND
     1     7     8   ar
     2     8     9   ar
     3     9    10   ar
     4    10     1    1
     5     1     2   ar
     6     2     3   ar
     7     3     4   ar
     8     4    13    1
     9    13    14    1
    10    14    15   ar
    11    15    16   ar
    12    16    17   ar
    13    17    18   ar
    14    18    19   ar
    15    13    20    1
    16    20    21   ar
    17    21    22   ar
    18    22    23   ar
    19    23    24   ar
    20     4     5   ar
    21     5     6   ar
    22    10    11   ar
    23    11    12   ar
    24    12     7   ar
    25     6     1   ar
    26    19    14   ar
    27    24    20   ar
@<TRIPOS>MOLECULE
*****
 24 27 0 0 0
SMALL
GASTEIGER

@<TRIPOS>ATOM
      1 C          62.9447   90.1021   10.9230 C.ar    1  UNL1       -0.0000
      2 C          63.4161   91.1896   10.0037 C.ar    1  UNL1       -0.0003
      3 C          64.4659   92.1574   10.4633 C.ar    1  UNL1       -0.0021
      4 C          65.0442   92.0378   11.8421 C.ar    1  UNL1        0.0025
      5 C          64.5728   90.9503   12.7614 C.ar    1  UNL1       -0.0021
      6 C          63.5230   89.9825   12.3018 C.ar    1  UNL1       -0.0003
      7 C          59.7954   87.1984    9.5442 C.ar    1  UNL1        0.0000
      8 C          59.7581   88.6232    9.0767 C.ar    1  UNL1        0.0000
      9 C          60.8079   89.5911    9.5363 C.ar    1  UNL1       -0.0000
     10 C          61.8949   89.1342   10.4634 C.ar    1  UNL1       -0.0000
     11 C          61.9322   87.7094   10.9309 C.ar    1  UNL1       -0.0000
     12 C          60.8825   86.7415   10.4713 C.ar    1  UNL1        0.0000
     13 C          66.0940   93.0057   12.3017 C.3     1  UNL1        0.1321
     14 C          66.8093   92.7758   13.5999 C.ar    1  UNL1        0.0025
     15 C          66.1330   93.1058   14.8976 C.ar    1  UNL1       -0.0021
     16 C          66.8484   92.8759   16.1958 C.ar    1  UNL1       -0.0003
     17 C          68.2399   92.3159   16.1964 C.ar    1  UNL1       -0.0000
     18 C          68.9162   91.9859   14.8989 C.ar    1  UNL1       -0.0003
     19 C          68.2008   92.2158   13.6006 C.ar    1  UNL1       -0.0021
     20 N          66.4284   94.2035   11.4631 N.ar    1  UNL1       -0.3020
     21 C          66.1329   95.6328   11.8096 C.ar    1  UNL1        0.0985
     22 C          66.6389   96.4951   10.6914 C.ar    1  UNL1        0.1193
     23 N          67.2472   95.5988    9.6537 N.ar    1  UNL1       -0.2223
     24 C          67.1171   94.1825   10.1307 C.ar    1  UNL1        0.1791
@<TRIPOS>BOND
     1     7     8   ar
     2     8     9   ar
     3     9    10   ar
     4    10     1    1
     5     1     2   ar
     6     2     3   ar
     7     3     4   ar
     8     4    13    1
     9    13    14    1
    10    14    15   ar
    11    15    16   ar
    12    16    17   ar
    13    17    18   ar
    14    18    19   ar
    15    13    20    1
    16    20    21   ar
    17    21    22   ar
    18    22    23   ar
    19    23    24   ar
    20     4     5   ar
    21     5     6   ar
    22    10    11   ar
    23    11    12   ar
    24    12     7   ar
    25     6     1   ar
    26    19    14   ar
    27    24    20   ar
@<TRIPOS>MOLECULE
*****
 24 27 0 0 0
SMALL
GASTEIGER

@<TRIPOS>ATOM
      1 C          64.2074   89.0700   14.0446 C.ar    1  UNL1       -0.0000
      2 C          64.4477   87.7065   14.6215 C.ar    1  UNL1       -0.0003
      3 C          63.9405   86.4894   13.9063 C.ar    1  UNL1       -0.0021
      4 C          63.1930   86.6359   12.6142 C.ar    1  UNL1        0.0025
      5 C          62.9526   87.9995   12.0373 C.ar    1  UNL1       -0.0021
      6 C          63.4598   89.2166   12.7525 C.ar    1  UNL1       -0.0003
      7 C          65.7290   92.7211   16.1903 C.ar    1  UNL1        0.0000
      8 C          64.4638   92.0564   16.6457 C.ar    1  UNL1        0.0000
      9 C          63.9566   90.8394   15.9304 C.ar    1  UNL1       -0.0000
     10 C          64.7146   90.2871   14.7599 C.ar    1  UNL1       -0.0000
     11 C          65.9798   90.9518   14.3045 C.ar    1  UNL1       -0.0000
     12 C          66.4870   92.1688   15.0198 C.ar    1  UNL1        0.0000
     13 C          62.6858   85.4189   11.8989 C.3     1  UNL1        0.1321
     14 C          62.2751   85.5117   10.4593 C.ar    1  UNL1        0.0025
     15 C          60.9555   86.1241   10.0937 C.ar    1  UNL1       -0.0021
     16 C          60.5448   86.2169    8.6541 C.ar    1  UNL1       -0.0003
     17 C          61.4538   85.6974    7.5799 C.ar    1  UNL1       -0.0000
     18 C          62.7734   85.0851    7.9453 C.ar    1  UNL1       -0.0003
     19 C          63.1841   84.9922    9.3851 C.ar    1  UNL1       -0.0021
     20 N          62.5892   84.1090   12.6234 N.ar    1  UNL1       -0.3020
     21 C          62.3193   83.9292   14.0880 C.ar    1  UNL1        0.0985
     22 C          62.3089   82.4580   14.3802 C.ar    1  UNL1        0.1193
     23 N          62.5724   81.7285   13.0963 N.ar    1  UNL1       -0.2223
     24 C          62.7456   82.7489   12.0105 C.ar    1  UNL1        0.1791
@<TRIPOS>BOND
     1     7     8   ar
     2     8     9   ar
     3     9    10   ar
     4    10     1    1
     5     1     2   ar
     6     2     3   ar
     7     3     4   ar
     8     4    13    1
     9    13    14    1
    10    14    15   ar
    11    15    16   ar
    12    16    17   ar
    13    17    18   ar
    14    18    19   ar
    15    13    20    1
    16    20    21   ar
    17    21    22   ar
    18    22    23   ar
    19    23    24   ar
    20     4     5   ar
    21     5     6   ar
    22    10    11   ar
    23    11    12   ar
    24    12     7   ar
    25     6     1   ar
    26    19    14   ar
    27    24    20   ar
@<TRIPOS>MOLECULE
*****
 24 27 0 0 0
SMALL
GASTEIGER

@<TRIPOS>ATOM
      1 C          64.0599   89.4399   13.6856 C.ar    1  UNL1       -0.0000
      2 C          64.1797   87.9944   14.0679 C.ar    1  UNL1       -0.0003
      3 C          63.5890   86.9341   13.1865 C.ar    1  UNL1       -0.0021
      4 C          62.8786   87.3192   11.9228 C.ar    1  UNL1        0.0025
      5 C          62.7587   88.7647   11.5406 C.ar    1  UNL1       -0.0021
      6 C          63.3494   89.8250   12.4219 C.ar    1  UNL1       -0.0003
      7 C          65.8319   92.6209   16.3297 C.ar    1  UNL1        0.0000
      8 C          66.5558   92.1874   15.0896 C.ar    1  UNL1        0.0000
      9 C          65.9652   91.1271   14.2082 C.ar    1  UNL1       -0.0000
     10 C          64.6505   90.5002   14.5670 C.ar    1  UNL1       -0.0000
     11 C          63.9266   90.9337   15.8071 C.ar    1  UNL1       -0.0000
     12 C          64.5172   91.9940   16.6884 C.ar    1  UNL1        0.0000
     13 C          62.2879   86.2589   11.0415 C.3     1  UNL1        0.1321
     14 C          62.7316   84.8331   11.1830 C.ar    1  UNL1        0.0025
     15 C          62.3320   84.0396   12.3917 C.ar    1  UNL1       -0.0021
     16 C          62.7757   82.6138   12.5332 C.ar    1  UNL1       -0.0003
     17 C          63.6191   81.9813   11.4661 C.ar    1  UNL1       -0.0000
     18 C          64.0188   82.7747   10.2575 C.ar    1  UNL1       -0.0003
     19 C          63.5750   84.2006   10.1159 C.ar    1  UNL1       -0.0021
     20 N          61.2535   86.6244   10.0186 N.ar    1  UNL1       -0.3020
     21 C          61.2349   86.1805    8.5858 C.ar    1  UNL1        0.0985
     22 C          60.0260   86.7797    7.9305 C.ar    1  UNL1        0.1193
     23 N          59.2973   87.5939    8.9582 N.ar    1  UNL1       -0.2223
     24 C          60.0560   87.4979   10.2487 C.ar    1  UNL1        0.1791
@<TRIPOS>BOND
     1     7     8   ar
     2     8     9   ar
     3     9    10   ar
     4    10     1    1
     5     1     2   ar
     6     2     3   ar
     7     3     4   ar
     8     4    13    1
     9    13    14    1
    10    14    15   ar
    11    15    16   ar
    12    16    17   ar
    13    17    18   ar
    14    18    19   ar
    15    13    20    1
    16    20    21   ar
    17    21    22   ar
    18    22    23   ar
    19    23    24   ar
    20     4     5   ar
    21     5     6   ar
    22    10    11   ar
    23    11    12   ar
    24    12     7   ar
    25     6     1   ar
    26    19    14   ar
    27    24    20   ar
@<TRIPOS>MOLECULE
*****
 24 27 0 0 0
SMALL
GASTEIGER

@<TRIPOS>ATOM
      1 C          62.2167   89.4100   10.1837 C.ar    1  UNL1       -0.0000
      2 C          62.7536   89.0254   11.5304 C.ar    1  UNL1       -0.0003
      3 C          63.7152   89.9311   12.2411 C.ar    1  UNL1       -0.0021
      4 C          64.1398   91.2214   11.6050 C.ar    1  UNL1        0.0025
      5 C          63.6029   91.6061   10.2583 C.ar    1  UNL1       -0.0021
      6 C          62.6413   90.7004    9.5476 C.ar    1  UNL1       -0.0003
      7 C          59.3319   86.6929    8.0517 C.ar    1  UNL1        0.0000
      8 C          59.1614   88.1808    7.9691 C.ar    1  UNL1        0.0000
      9 C          60.1230   89.0865    8.6798 C.ar    1  UNL1       -0.0000
     10 C          61.2551   88.5043    9.4730 C.ar    1  UNL1       -0.0000
     11 C          61.4256   87.0163    9.5556 C.ar    1  UNL1       -0.0000
     12 C          60.4641   86.1106    8.8449 C.ar    1  UNL1        0.0000
     13 C          65.1014   92.1272   12.3157 C.3     1  UNL1        0.1321
     14 C          65.1674   92.1234   13.8142 C.ar    1  UNL1        0.0025
     15 C          64.0868   91.4542   14.6109 C.ar    1  UNL1       -0.0021
     16 C          64.1528   91.4505   16.1094 C.ar    1  UNL1       -0.0003
     17 C          65.2994   92.1158   16.8113 C.ar    1  UNL1       -0.0000
     18 C          66.3800   92.7849   16.0147 C.ar    1  UNL1       -0.0003
     19 C          66.3140   92.7887   14.5161 C.ar    1  UNL1       -0.0021
     20 N          65.9970   93.0366   11.5278 N.ar    1  UNL1       -0.3020
     21 C          65.8558   94.5252   11.4069 C.ar    1  UNL1        0.0985
     22 C          66.9625   95.0258   10.5269 C.ar    1  UNL1        0.1193
     23 N          67.7878   93.8468   10.1039 N.ar    1  UNL1       -0.2223
     24 C          67.1910   92.6174   10.7225 C.ar    1  UNL1        0.1791
@<TRIPOS>BOND
     1     7     8   ar
     2     8     9   ar
     3     9    10   ar
     4    10     1    1
     5     1     2   ar
     6     2     3   ar
     7     3     4   ar
     8     4    13    1
     9    13    14    1
    10    14    15   ar
    11    15    16   ar
    12    16    17   ar
    13    17    18   ar
    14    18    19   ar
    15    13    20    1
    16    20    21   ar
    17    21    22   ar
    18    22    23   ar
    19    23    24   ar
    20     4     5   ar
    21     5     6   ar
    22    10    11   ar
    23    11    12   ar
    24    12     7   ar
    25     6     1   ar
    26    19    14   ar
    27    24    20   ar
@<TRIPOS>MOLECULE
*****
 24 27 0 0 0
SMALL
GASTEIGER

@<TRIPOS>ATOM
      1 C          64.2286   90.4595   12.6651 C.ar    1  UNL1       -0.0000
      2 C          63.9935   89.1090   13.2740 C.ar    1  UNL1       -0.0003
      3 C          63.2531   88.0571   12.5024 C.ar    1  UNL1       -0.0021
      4 C          62.7479   88.3557   11.1220 C.ar    1  UNL1        0.0025
      5 C          62.9830   89.7062   10.5132 C.ar    1  UNL1       -0.0021
      6 C          63.7234   90.7581   11.2847 C.ar    1  UNL1       -0.0003
      7 C          66.4498   93.6153   14.9798 C.ar    1  UNL1        0.0000
      8 C          66.3297   93.7241   13.4886 C.ar    1  UNL1        0.0000
      9 C          65.5894   92.6721   12.7170 C.ar    1  UNL1       -0.0000
     10 C          64.9690   91.5115   13.4367 C.ar    1  UNL1       -0.0000
     11 C          65.0890   91.4027   14.9279 C.ar    1  UNL1       -0.0000
     12 C          65.8294   92.4546   15.6994 C.ar    1  UNL1        0.0000
     13 C          62.0075   87.3037   10.3505 C.3     1  UNL1        0.1321
     14 C          62.4050   85.8628   10.4755 C.ar    1  UNL1        0.0025
     15 C          63.0713   85.1662    9.3261 C.ar    1  UNL1       -0.0021
     16 C          63.4688   83.7252    9.4511 C.ar    1  UNL1       -0.0003
     17 C          63.2002   82.9809   10.7254 C.ar    1  UNL1       -0.0000
     18 C          62.5339   83.6775   11.8747 C.ar    1  UNL1       -0.0003
     19 C          62.1364   85.1185   11.7497 C.ar    1  UNL1       -0.0021
     20 N          60.8696   87.6927    9.4539 N.ar    1  UNL1       -0.3020
     21 C          60.5777   89.0747    8.9488 C.ar    1  UNL1        0.0985
     22 C          59.3515   89.0042    8.0878 C.ar    1  UNL1        0.1193
     23 N          58.8854   87.5786    8.0607 N.ar    1  UNL1       -0.2223
     24 C          59.8237   86.7681    8.9051 C.ar    1  UNL1        0.1791
@<TRIPOS>BOND
     1     7     8   ar
     2     8     9   ar
     3     9    10   ar
     4    10     1    1
     5     1     2   ar
     6     2     3   ar
     7     3     4   ar
     8     4    13    1
     9    13    14    1
    10    14    15   ar
    11    15    16   ar
    12    16    17   ar
    13    17    18   ar
    14    18    19   ar
    15    13    20    1
    16    20    21   ar
    17    21    22   ar
    18    22    23   ar
    19    23    24   ar
    20     4     5   ar
    21     5     6   ar
    22    10    11   ar
    23    11    12   ar
    24    12     7   ar
    25     6     1   ar
    26    19    14   ar
    27    24    20   ar
@<TRIPOS>MOLECULE
*****
 24 27 0 0 0
SMALL
GASTEIGER

@<TRIPOS>ATOM
      1 C          61.9106   88.2025   10.1449 C.ar    1  UNL1       -0.0000
      2 C          61.8654   89.6948   10.0006 C.ar    1  UNL1       -0.0003
      3 C          62.5424   90.5673   11.0156 C.ar    1  UNL1       -0.0021
      4 C          63.2648   89.9476   12.1749 C.ar    1  UNL1        0.0025
      5 C          63.3100   88.4553   12.3193 C.ar    1  UNL1       -0.0021
      6 C          62.6330   87.5827   11.3042 C.ar    1  UNL1       -0.0003
      7 C          59.8795   85.5848    7.0999 C.ar    1  UNL1        0.0000
      8 C          59.1352   86.7297    7.7204 C.ar    1  UNL1        0.0000
      9 C          59.8123   87.6023    8.7354 C.ar    1  UNL1       -0.0000
     10 C          61.2336   87.3299    9.1299 C.ar    1  UNL1       -0.0000
     11 C          61.9779   86.1850    8.5093 C.ar    1  UNL1       -0.0000
     12 C          61.3008   85.3124    7.4943 C.ar    1  UNL1        0.0000
     13 C          63.9418   90.8201   13.1899 C.3     1  UNL1        0.1321
     14 C          64.8371   91.9368   12.7412 C.ar    1  UNL1        0.0025
     15 C          65.7680   92.5909   13.7188 C.ar    1  UNL1       -0.0021
     16 C          66.6633   93.7075   13.2701 C.ar    1  UNL1       -0.0003
     17 C          66.6278   94.1701   11.8436 C.ar    1  UNL1       -0.0000
     18 C          65.6971   93.5161   10.8660 C.ar    1  UNL1       -0.0003
     19 C          64.8017   92.3994   11.3147 C.ar    1  UNL1       -0.0021
     20 N          63.7235   90.5760   14.6537 N.ar    1  UNL1       -0.3020
     21 C          63.3455   89.2677   15.2827 C.ar    1  UNL1        0.0985
     22 C          63.2333   89.4805   16.7633 C.ar    1  UNL1        0.1193
     23 N          63.5420   90.9202   17.0495 N.ar    1  UNL1       -0.2223
     24 C          63.8450   91.5973   15.7456 C.ar    1  UNL1        0.1791
@<TRIPOS>BOND
     1     7     8   ar
     2     8     9   ar
     3     9    10   ar
     4    10     1    1
     5     1     2   ar
     6     2     3   ar
     7     3     4   ar
     8     4    13    1
     9    13    14    1
    10    14    15   ar
    11    15    16   ar
    12    16    17   ar
    13    17    18   ar
    14    18    19   ar
    15    13    20    1
    16    20    21   ar
    17    21    22   ar
    18    22    23   ar
    19    23    24   ar
    20     4     5   ar
    21     5     6   ar
    22    10    11   ar
    23    11    12   ar
    24    12     7   ar
    25     6     1   ar
    26    19    14   ar
    27    24    20   ar
@<TRIPOS>MOLECULE
*****
 24 27 0 0 0
SMALL
GASTEIGER

@<TRIPOS>ATOM
      1 C          62.7260   84.5141   11.8638 C.ar    1  UNL1       -0.0000
      2 C          63.4043   85.2531   12.9791 C.ar    1  UNL1       -0.0003
      3 C          63.2999   86.7472   13.0613 C.ar    1  UNL1       -0.0021
      4 C          62.5173   87.5023   12.0283 C.ar    1  UNL1        0.0025
      5 C          61.8390   86.7634   10.9130 C.ar    1  UNL1       -0.0021
      6 C          61.9434   85.2693   10.8308 C.ar    1  UNL1       -0.0003
      7 C          63.0391   80.0318   11.6171 C.ar    1  UNL1        0.0000
      8 C          62.5592   80.6817   12.8809 C.ar    1  UNL1        0.0000
      9 C          62.4549   82.1758   12.9631 C.ar    1  UNL1       -0.0000
     10 C          62.8304   83.0200   11.7815 C.ar    1  UNL1       -0.0000
     11 C          63.3102   82.3701   10.5177 C.ar    1  UNL1       -0.0000
     12 C          63.4146   80.8760   10.4355 C.ar    1  UNL1        0.0000
     13 C          62.4129   88.9964   12.1105 C.3     1  UNL1        0.1321
     14 C          63.5343   89.7949   12.7062 C.ar    1  UNL1        0.0025
     15 C          64.1385   89.3792   14.0148 C.ar    1  UNL1       -0.0021
     16 C          65.2598   90.1777   14.6104 C.ar    1  UNL1       -0.0003
     17 C          65.7771   91.3919   13.8976 C.ar    1  UNL1       -0.0000
     18 C          65.1730   91.8077   12.5891 C.ar    1  UNL1       -0.0003
     19 C          64.0516   91.0092   11.9934 C.ar    1  UNL1       -0.0021
     20 N          61.1872   89.6920   11.5971 N.ar    1  UNL1       -0.3020
     21 C          59.9393   89.9729   12.3808 C.ar    1  UNL1        0.0985
     22 C          58.9750   90.6834   11.4779 C.ar    1  UNL1        0.1193
     23 N          59.6268   90.8417   10.1361 N.ar    1  UNL1       -0.2223
     24 C          60.9940   90.2290   10.2099 C.ar    1  UNL1        0.1791
@<TRIPOS>BOND
     1     7     8   ar
     2     8     9   ar
     3     9    10   ar
     4    10     1    1
     5     1     2   ar
     6     2     3   ar
     7     3     4   ar
     8     4    13    1
     9    13    14    1
    10    14    15   ar
    11    15    16   ar
    12    16    17   ar
    13    17    18   ar
    14    18    19   ar
    15    13    20    1
    16    20    21   ar
    17    21    22   ar
    18    22    23   ar
    19    23    24   ar
    20     4     5   ar
    21     5     6   ar
    22    10    11   ar
    23    11    12   ar
    24    12     7   ar
    25     6     1   ar
    26    19    14   ar
    27    24    20   ar
@<TRIPOS>MOLECULE
*****
 24 27 0 0 0
SMALL
GASTEIGER

@<TRIPOS>ATOM
      1 C          62.3502   87.1913   10.2049 C.ar    1  UNL1       -0.0000
      2 C          62.7960   86.4420   11.4254 C.ar    1  UNL1       -0.0003
      3 C          63.3144   87.1905   12.6174 C.ar    1  UNL1       -0.0021
      4 C          63.3869   88.6885   12.5889 C.ar    1  UNL1        0.0025
      5 C          62.9411   89.4379   11.3685 C.ar    1  UNL1       -0.0021
      6 C          62.4228   88.6893   10.1764 C.ar    1  UNL1       -0.0003
      7 C          60.7952   84.9456    6.6288 C.ar    1  UNL1        0.0000
      8 C          59.8833   85.8548    7.3981 C.ar    1  UNL1        0.0000
      9 C          60.4017   86.6033    8.5902 C.ar    1  UNL1       -0.0000
     10 C          61.8319   86.4428    9.0128 C.ar    1  UNL1       -0.0000
     11 C          62.7437   85.5336    8.2435 C.ar    1  UNL1       -0.0000
     12 C          62.2254   84.7851    7.0515 C.ar    1  UNL1        0.0000
     13 C          63.9053   89.4371   13.7810 C.3     1  UNL1        0.1321
     14 C          64.7220   90.6804   13.5888 C.ar    1  UNL1        0.0025
     15 C          64.5146   91.5335   12.3725 C.ar    1  UNL1       -0.0021
     16 C          65.3314   92.7768   12.1803 C.ar    1  UNL1       -0.0003
     17 C          66.3556   93.1671   13.2044 C.ar    1  UNL1       -0.0000
     18 C          66.5631   92.3141   14.4206 C.ar    1  UNL1       -0.0003
     19 C          65.7463   91.0707   14.6128 C.ar    1  UNL1       -0.0021
     20 N          63.6069   88.9423   15.1652 N.ar    1  UNL1       -0.3020
     21 C          63.6269   87.5109   15.6134 C.ar    1  UNL1        0.0985
     22 C          63.2684   87.4760   17.0695 C.ar    1  UNL1        0.1193
     23 N          63.0269   88.8858   17.5214 N.ar    1  UNL1       -0.2223
     24 C          63.2361   89.7920   16.3444 C.ar    1  UNL1        0.1791
@<TRIPOS>BOND
     1     7     8   ar
     2     8     9   ar
     3     9    10   ar
     4    10     1    1
     5     1     2   ar
     6     2     3   ar
     7     3     4   ar
     8     4    13    1
     9    13    14    1
    10    14    15   ar
    11    15    16   ar
    12    16    17   ar
    13    17    18   ar
    14    18    19   ar
    15    13    20    1
    16    20    21   ar
    17    21    22   ar
    18    22    23   ar
    19    23    24   ar
    20     4     5   ar
    21     5     6   ar
    22    10    11   ar
    23    11    12   ar
    24    12     7   ar
    25     6     1   ar
    26    19    14   ar
    27    24    20   ar
