@<TRIPOS>MOLECULE
*****
 26 29 0 0 0
SMALL
GASTEIGER

@<TRIPOS>ATOM
      1 C          65.6290   92.7233   11.9815 C.2     1  UNL1        0.0161
      2 C          66.1337   92.4583   13.3689 C.2     1  UNL1        0.0981
      3 N          65.3164   91.3453   13.9547 N.2     1  UNL1       -0.2477
      4 C          64.3066   90.9224   12.9293 C.2     1  UNL1        0.0670
      5 C          63.2362   89.8718   12.9486 C.3     1  UNL1        0.1127
      6 C          62.3589   89.6729   11.7482 C.2     1  UNL1        0.1186
      7 C          62.5521   90.5246   10.5287 C.2     1  UNL1        0.0359
      8 C          63.6225   91.5752   10.5095 C.2     1  UNL1        0.0044
      9 C          64.4998   91.7741   11.7098 C.2     1  UNL1        0.0153
     10 C          67.7538   96.8550    8.1848 C.3     1  UNL1        0.0899
     11 N          67.2226   95.8221    9.1339 N.3     1  UNL1       -0.2674
     12 C          66.3086   96.2297   10.2512 C.3     1  UNL1        0.0986
     13 C          65.7774   95.1967   11.2004 C.2     1  UNL1       -0.0130
     14 C          66.1602   93.7563   11.0323 C.2     1  UNL1       -0.0222
     15 C          67.0743   93.3486    9.9150 C.3     1  UNL1        0.0434
     16 C          67.6055   94.3816    8.9658 C.3     1  UNL1        0.0771
     17 N          61.2884   88.6223   11.7674 N.pl3   1  UNL1       -0.2022
     18 H          60.4234   88.8087   12.1991 H       1  UNL1        0.2982
     19 C          61.5358   87.2877   11.1289 C.2     1  UNL1        0.3222
     20 N          62.3708   86.2614   11.8357 N.2     1  UNL1       -0.0985
     21 H          62.7565   86.4638   12.7186 H       1  UNL1        0.3633
     22 C          60.9482   86.9795    9.7837 C.ar    1  UNL1        0.1113
     23 C          61.4546   85.9525    8.8148 C.ar    1  UNL1        0.0144
     24 C          60.5705   85.9823    7.6034 C.ar    1  UNL1        0.0077
     25 C          59.5176   87.0279    7.8236 C.ar    1  UNL1        0.0357
     26 S          59.7511   87.6441    9.1711 S.2     1  UNL1       -0.0792
@<TRIPOS>BOND
     1    10    11    1
     2    11    12    1
     3    12    13    1
     4    13    14    2
     5    14     1    1
     6     1     2    2
     7     2     3    1
     8     3     4    2
     9     4     5    1
    10     5     6    1
    11     6    17    1
    12    17    19    1
    13    19    20    2
    14    19    22    1
    15    22    23   ar
    16    23    24   ar
    17    24    25   ar
    18    25    26   ar
    19     6     7    2
    20     7     8    1
    21     8     9    2
    22    14    15    1
    23    15    16    1
    24    16    11    1
    25     9     1    1
    26     9     4    1
    27    26    22   ar
    28    17    18    1
    29    20    21    1
@<TRIPOS>MOLECULE
*****
 26 29 0 0 0
SMALL
GASTEIGER

@<TRIPOS>ATOM
      1 C          65.6431   92.7677   12.1033 C.2     1  UNL1        0.0161
      2 C          66.1144   92.5583   13.5119 C.2     1  UNL1        0.0981
      3 N          65.3120   91.4398   14.1076 N.2     1  UNL1       -0.2477
      4 C          64.3448   90.9578   13.0673 C.2     1  UNL1        0.0670
      5 C          63.3042   89.8777   13.0879 C.3     1  UNL1        0.1127
      6 C          62.4683   89.6183   11.8697 C.2     1  UNL1        0.1186
      7 C          62.6730   90.4391   10.6310 C.2     1  UNL1        0.0359
      8 C          63.7136   91.5192   10.6104 C.2     1  UNL1        0.0044
      9 C          64.5495   91.7786   11.8285 C.2     1  UNL1        0.0153
     10 C          67.7609   96.8460    8.2454 C.3     1  UNL1        0.0899
     11 N          67.2314   95.8265    9.2099 N.3     1  UNL1       -0.2674
     12 C          67.5075   94.3690    8.9872 C.3     1  UNL1        0.0986
     13 C          66.9780   93.3495    9.9517 C.2     1  UNL1       -0.0130
     14 C          66.1726   93.7873   11.1389 C.2     1  UNL1       -0.0222
     15 C          65.8965   95.2448   11.3616 C.3     1  UNL1        0.0434
     16 C          66.4259   96.2644   10.3971 C.3     1  UNL1        0.0771
     17 N          61.4277   88.5382   11.8903 N.pl3   1  UNL1       -0.2022
     18 H          60.9540   88.3268   12.7271 H       1  UNL1        0.2982
     19 C          61.1087   87.7801   10.6358 C.2     1  UNL1        0.3222
     20 N          60.0098   88.2546    9.7317 N.2     1  UNL1       -0.0985
     21 H          59.4980   89.0636    9.9616 H       1  UNL1        0.3633
     22 C          61.8885   86.5476   10.2856 C.ar    1  UNL1        0.1113
     23 C          62.3611   86.1632    8.9149 C.ar    1  UNL1        0.0144
     24 C          63.0973   84.8611    9.0266 C.ar    1  UNL1        0.0077
     25 C          63.0797   84.4407   10.4664 C.ar    1  UNL1        0.0357
     26 S          62.3326   85.4830   11.2445 S.2     1  UNL1       -0.0792
@<TRIPOS>BOND
     1    10    11    1
     2    11    12    1
     3    12    13    1
     4    13    14    2
     5    14     1    1
     6     1     2    2
     7     2     3    1
     8     3     4    2
     9     4     5    1
    10     5     6    1
    11     6    17    1
    12    17    19    1
    13    19    20    2
    14    19    22    1
    15    22    23   ar
    16    23    24   ar
    17    24    25   ar
    18    25    26   ar
    19     6     7    2
    20     7     8    1
    21     8     9    2
    22    14    15    1
    23    15    16    1
    24    16    11    1
    25     9     1    1
    26     9     4    1
    27    26    22   ar
    28    17    18    1
    29    20    21    1
@<TRIPOS>MOLECULE
*****
 26 29 0 0 0
SMALL
GASTEIGER

@<TRIPOS>ATOM
      1 C          63.8443   89.2778   15.5072 C.2     1  UNL1        0.0161
      2 C          63.1644   89.4966   16.8262 C.2     1  UNL1        0.0981
      3 N          62.8350   88.1531   17.4063 N.2     1  UNL1       -0.2477
      4 C          63.3113   87.1040   16.4458 C.2     1  UNL1        0.0670
      5 C          63.2577   85.6056   16.4883 C.3     1  UNL1        0.1127
      6 C          63.8278   84.8023   15.3571 C.2     1  UNL1        0.1186
      7 C          64.4516   85.4975   14.1834 C.2     1  UNL1        0.0359
      8 C          64.5053   86.9959   14.1408 C.2     1  UNL1        0.0044
      9 C          63.9352   87.7991   15.2720 C.2     1  UNL1        0.0153
     10 C          65.8489   93.5648   11.8188 C.3     1  UNL1        0.0899
     11 N          65.3477   92.4931   12.7409 N.3     1  UNL1       -0.2674
     12 C          65.9498   92.3361   14.1057 C.3     1  UNL1        0.0986
     13 C          65.4486   91.2643   15.0278 C.2     1  UNL1       -0.0130
     14 C          64.3455   90.3496   14.5851 C.2     1  UNL1       -0.0222
     15 C          63.7433   90.5065   13.2202 C.3     1  UNL1        0.0434
     16 C          64.2445   91.5783   12.2981 C.3     1  UNL1        0.0771
     17 N          63.7742   83.3038   15.3996 N.pl3   1  UNL1       -0.2022
     18 H          64.2154   82.8160   16.1321 H       1  UNL1        0.2982
     19 C          63.0483   82.5486   14.3259 C.2     1  UNL1        0.3222
     20 N          62.0312   81.5101   14.6963 N.2     1  UNL1       -0.0985
     21 H          61.8401   81.3241   15.6440 H       1  UNL1        0.3633
     22 C          63.3394   82.8319   12.8820 C.ar    1  UNL1        0.1113
     23 C          62.6196   83.8223   12.0154 C.ar    1  UNL1        0.0144
     24 C          63.2367   83.7771   10.6489 C.ar    1  UNL1        0.0077
     25 C          64.3379   82.7587   10.6711 C.ar    1  UNL1        0.0357
     26 S          64.4013   82.1746   12.0512 S.2     1  UNL1       -0.0792
@<TRIPOS>BOND
     1    10    11    1
     2    11    12    1
     3    12    13    1
     4    13    14    2
     5    14     1    1
     6     1     2    2
     7     2     3    1
     8     3     4    2
     9     4     5    1
    10     5     6    1
    11     6    17    1
    12    17    19    1
    13    19    20    2
    14    19    22    1
    15    22    23   ar
    16    23    24   ar
    17    24    25   ar
    18    25    26   ar
    19     6     7    2
    20     7     8    1
    21     8     9    2
    22    14    15    1
    23    15    16    1
    24    16    11    1
    25     9     1    1
    26     9     4    1
    27    26    22   ar
    28    17    18    1
    29    20    21    1
@<TRIPOS>MOLECULE
*****
 26 29 0 0 0
SMALL
GASTEIGER

@<TRIPOS>ATOM
      1 C          62.3888   85.9903   11.3603 C.2     1  UNL1        0.0161
      2 C          61.6460   86.2749   10.0886 C.2     1  UNL1        0.0981
      3 N          61.6349   87.7604    9.8809 N.2     1  UNL1       -0.2477
      4 C          62.3708   88.3939   11.0241 C.2     1  UNL1        0.0670
      5 C          62.6768   89.8255   11.3507 C.3     1  UNL1        0.1127
      6 C          63.4488   90.1632   12.5917 C.2     1  UNL1        0.1186
      7 C          63.9147   89.0692   13.5060 C.2     1  UNL1        0.0359
      8 C          63.6087   87.6375   13.1795 C.2     1  UNL1        0.0044
      9 C          62.8368   87.2999   11.9385 C.2     1  UNL1        0.0153
     10 C          63.3922   80.5658   13.7201 C.3     1  UNL1        0.0899
     11 N          63.1414   81.9219   13.1301 N.3     1  UNL1       -0.2674
     12 C          62.6841   83.0489   14.0081 C.3     1  UNL1        0.0986
     13 C          62.4332   84.4050   13.4181 C.2     1  UNL1       -0.0130
     14 C          62.6397   84.6342   11.9503 C.2     1  UNL1       -0.0222
     15 C          63.0970   83.5072   11.0722 C.3     1  UNL1        0.0434
     16 C          63.3478   82.1511   11.6622 C.3     1  UNL1        0.0771
     17 N          63.7548   91.5949   12.9183 N.pl3   1  UNL1       -0.2022
     18 H          63.0691   92.1607   13.3412 H       1  UNL1        0.2982
     19 C          65.1057   92.1644   12.6006 C.2     1  UNL1        0.3222
     20 N          65.4561   92.5194   11.1859 N.2     1  UNL1       -0.0985
     21 H          64.7995   92.3786   10.4660 H       1  UNL1        0.3633
     22 C          66.1060   92.3789   13.6975 C.ar    1  UNL1        0.1113
     23 C          66.7099   91.3115   14.5612 C.ar    1  UNL1        0.0144
     24 C          67.6553   91.9714   15.5208 C.ar    1  UNL1        0.0077
     25 C          67.6356   93.4467   15.2502 C.ar    1  UNL1        0.0357
     26 S          66.6782   93.6985   14.1234 S.2     1  UNL1       -0.0792
@<TRIPOS>BOND
     1    10    11    1
     2    11    12    1
     3    12    13    1
     4    13    14    2
     5    14     1    1
     6     1     2    2
     7     2     3    1
     8     3     4    2
     9     4     5    1
    10     5     6    1
    11     6    17    1
    12    17    19    1
    13    19    20    2
    14    19    22    1
    15    22    23   ar
    16    23    24   ar
    17    24    25   ar
    18    25    26   ar
    19     6     7    2
    20     7     8    1
    21     8     9    2
    22    14    15    1
    23    15    16    1
    24    16    11    1
    25     9     1    1
    26     9     4    1
    27    26    22   ar
    28    17    18    1
    29    20    21    1
@<TRIPOS>MOLECULE
*****
 26 29 0 0 0
SMALL
GASTEIGER

@<TRIPOS>ATOM
      1 C          63.1341   89.5849   12.1593 C.2     1  UNL1        0.0161
      2 C          63.4178   89.1164   13.5557 C.2     1  UNL1        0.0981
      3 N          64.4079   90.0614   14.1694 N.2     1  UNL1       -0.2477
      4 C          64.7361   91.1139   13.1523 C.2     1  UNL1        0.0670
      5 C          65.6501   92.3024   13.1970 C.3     1  UNL1        0.1127
      6 C          65.7768   93.1964   11.9992 C.2     1  UNL1        0.1186
      7 C          64.9895   92.9020   10.7569 C.2     1  UNL1        0.0359
      8 C          64.0755   91.7135   10.7122 C.2     1  UNL1        0.0044
      9 C          63.9488   90.8195   11.9100 C.2     1  UNL1        0.0153
     10 C          59.3964   86.9784    8.2558 C.3     1  UNL1        0.0899
     11 N          60.3308   87.6300    9.2317 N.3     1  UNL1       -0.2674
     12 C          60.3834   89.1255    9.3357 C.3     1  UNL1        0.0986
     13 C          61.3178   89.7771   10.3115 C.2     1  UNL1       -0.0130
     14 C          62.1997   88.9333   11.1834 C.2     1  UNL1       -0.0222
     15 C          62.1471   87.4378   11.0795 C.3     1  UNL1        0.0434
     16 C          61.2127   86.7862   10.1036 C.3     1  UNL1        0.0771
     17 N          66.6909   94.3850   12.0438 N.pl3   1  UNL1       -0.2022
     18 H          67.5577   94.3223   12.5063 H       1  UNL1        0.2982
     19 C          66.2841   95.6691   11.3837 C.2     1  UNL1        0.3222
     20 N          65.7001   96.7815   12.2033 N.2     1  UNL1       -0.0985
     21 H          65.5838   96.6688   13.1744 H       1  UNL1        0.3633
     22 C          66.4613   95.8408    9.9042 C.ar    1  UNL1        0.1113
     23 C          67.3739   95.0367    9.0264 C.ar    1  UNL1        0.0144
     24 C          67.2337   95.5457    7.6224 C.ar    1  UNL1        0.0077
     25 C          66.2344   96.6644    7.6324 C.ar    1  UNL1        0.0357
     26 S          65.7570   96.8467    9.0427 S.2     1  UNL1       -0.0792
@<TRIPOS>BOND
     1    10    11    1
     2    11    12    1
     3    12    13    1
     4    13    14    2
     5    14     1    1
     6     1     2    2
     7     2     3    1
     8     3     4    2
     9     4     5    1
    10     5     6    1
    11     6    17    1
    12    17    19    1
    13    19    20    2
    14    19    22    1
    15    22    23   ar
    16    23    24   ar
    17    24    25   ar
    18    25    26   ar
    19     6     7    2
    20     7     8    1
    21     8     9    2
    22    14    15    1
    23    15    16    1
    24    16    11    1
    25     9     1    1
    26     9     4    1
    27    26    22   ar
    28    17    18    1
    29    20    21    1
@<TRIPOS>MOLECULE
*****
 26 29 0 0 0
SMALL
GASTEIGER

@<TRIPOS>ATOM
      1 C          62.6590   85.9700   11.9054 C.2     1  UNL1        0.0161
      2 C          62.0314   86.5193   10.6586 C.2     1  UNL1        0.0981
      3 N          62.1927   88.0105   10.6768 N.2     1  UNL1       -0.2477
      4 C          62.9200   88.3828   11.9348 C.2     1  UNL1        0.0670
      5 C          63.3570   89.7072   12.4869 C.3     1  UNL1        0.1127
      6 C          64.0822   89.7705   13.7984 C.2     1  UNL1        0.1186
      7 C          64.3704   88.5094   14.5577 C.2     1  UNL1        0.0359
      8 C          63.9334   87.1850   14.0056 C.2     1  UNL1        0.0044
      9 C          63.2082   87.1217   12.6941 C.2     1  UNL1        0.0153
     10 C          62.9261   80.1821   13.4640 C.3     1  UNL1        0.0899
     11 N          62.8594   81.6291   13.0743 N.3     1  UNL1       -0.2674
     12 C          62.4916   82.6646   14.0953 C.3     1  UNL1        0.0986
     13 C          62.4248   84.1115   13.7057 C.2     1  UNL1       -0.0130
     14 C          62.7258   84.5231   12.2950 C.2     1  UNL1       -0.0222
     15 C          63.0936   83.4875   11.2740 C.3     1  UNL1        0.0434
     16 C          63.1604   82.0406   11.6636 C.3     1  UNL1        0.0771
     17 N          64.5192   91.0950   14.3506 N.pl3   1  UNL1       -0.2022
     18 H          63.9470   91.5734   14.9932 H       1  UNL1        0.2982
     19 C          65.8282   91.6904   13.9238 C.2     1  UNL1        0.3222
     20 N          67.0912   91.3184   14.6424 N.2     1  UNL1       -0.0985
     21 H          67.0611   90.6834   15.3942 H       1  UNL1        0.3633
     22 C          65.8741   92.6579   12.7785 C.ar    1  UNL1        0.1113
     23 C          65.4154   92.3866   11.3763 C.ar    1  UNL1        0.0144
     24 C          65.6446   93.6275   10.5654 C.ar    1  UNL1        0.0077
     25 C          66.2448   94.6658   11.4664 C.ar    1  UNL1        0.0357
     26 S          66.3867   94.0665   12.8342 S.2     1  UNL1       -0.0792
@<TRIPOS>BOND
     1    10    11    1
     2    11    12    1
     3    12    13    1
     4    13    14    2
     5    14     1    1
     6     1     2    2
     7     2     3    1
     8     3     4    2
     9     4     5    1
    10     5     6    1
    11     6    17    1
    12    17    19    1
    13    19    20    2
    14    19    22    1
    15    22    23   ar
    16    23    24   ar
    17    24    25   ar
    18    25    26   ar
    19     6     7    2
    20     7     8    1
    21     8     9    2
    22    14    15    1
    23    15    16    1
    24    16    11    1
    25     9     1    1
    26     9     4    1
    27    26    22   ar
    28    17    18    1
    29    20    21    1
@<TRIPOS>MOLECULE
*****
 26 29 0 0 0
SMALL
GASTEIGER

@<TRIPOS>ATOM
      1 C          62.8160   87.5372   12.2012 C.2     1  UNL1        0.0161
      2 C          63.2854   86.5075   13.1857 C.2     1  UNL1        0.0981
      3 N          64.1568   87.1947   14.1950 N.2     1  UNL1       -0.2477
      4 C          64.2258   88.6491   13.8342 C.2     1  UNL1        0.0670
      5 C          64.9361   89.8079   14.4685 C.3     1  UNL1        0.1127
      6 C          64.8178   91.1784   13.8705 C.2     1  UNL1        0.1186
      7 C          63.9891   91.3901   12.6382 C.2     1  UNL1        0.0359
      8 C          63.2788   90.2312   12.0039 C.2     1  UNL1        0.0044
      9 C          63.3971   88.8607   12.6019 C.2     1  UNL1        0.0153
     10 C          59.2410   86.5373    7.4873 C.3     1  UNL1        0.0899
     11 N          60.1348   86.7873    8.6657 N.3     1  UNL1       -0.2674
     12 C          59.7344   87.7841    9.7126 C.3     1  UNL1        0.0986
     13 C          60.6281   88.0340   10.8911 C.2     1  UNL1       -0.0130
     14 C          61.9222   87.2872   11.0227 C.2     1  UNL1       -0.0222
     15 C          62.3227   86.2903    9.9758 C.3     1  UNL1        0.0434
     16 C          61.4289   86.0404    8.7973 C.3     1  UNL1        0.0771
     17 N          65.5281   92.3374   14.5048 N.pl3   1  UNL1       -0.2022
     18 H          65.1912   92.7201   15.3470 H       1  UNL1        0.2982
     19 C          66.7518   92.9132   13.8559 C.2     1  UNL1        0.3222
     20 N          67.9791   93.1823   14.6754 N.2     1  UNL1       -0.0985
     21 H          67.9814   92.9810   15.6391 H       1  UNL1        0.3633
     22 C          66.7482   93.2200   12.3877 C.ar    1  UNL1        0.1113
     23 C          67.2995   92.3434   11.3025 C.ar    1  UNL1        0.0144
     24 C          67.0847   93.0388    9.9909 C.ar    1  UNL1        0.0077
     25 C          66.4007   94.3452   10.2655 C.ar    1  UNL1        0.0357
     26 S          66.1927   94.4572   11.7467 S.2     1  UNL1       -0.0792
@<TRIPOS>BOND
     1    10    11    1
     2    11    12    1
     3    12    13    1
     4    13    14    2
     5    14     1    1
     6     1     2    2
     7     2     3    1
     8     3     4    2
     9     4     5    1
    10     5     6    1
    11     6    17    1
    12    17    19    1
    13    19    20    2
    14    19    22    1
    15    22    23   ar
    16    23    24   ar
    17    24    25   ar
    18    25    26   ar
    19     6     7    2
    20     7     8    1
    21     8     9    2
    22    14    15    1
    23    15    16    1
    24    16    11    1
    25     9     1    1
    26     9     4    1
    27    26    22   ar
    28    17    18    1
    29    20    21    1
@<TRIPOS>MOLECULE
*****
 26 29 0 0 0
SMALL
GASTEIGER

@<TRIPOS>ATOM
      1 C          62.4865   87.0480   11.4723 C.2     1  UNL1        0.0161
      2 C          61.6577   87.4413   10.2855 C.2     1  UNL1        0.0981
      3 N          61.7209   88.9338   10.1503 N.2     1  UNL1       -0.2477
      4 C          62.5885   89.4630   11.2535 C.2     1  UNL1        0.0670
      5 C          63.0089   90.8555   11.6197 C.3     1  UNL1        0.1127
      6 C          63.9024   91.0825   12.8029 C.2     1  UNL1        0.1186
      7 C          64.3756   89.9169   13.6199 C.2     1  UNL1        0.0359
      8 C          63.9553   88.5244   13.2538 C.2     1  UNL1        0.0044
      9 C          63.0617   88.2974   12.0706 C.2     1  UNL1        0.0153
     10 C          63.3490   81.4582   13.4750 C.3     1  UNL1        0.0899
     11 N          63.1334   82.8556   12.9743 N.3     1  UNL1       -0.2674
     12 C          62.5072   83.0825   11.6303 C.3     1  UNL1        0.0986
     13 C          62.2916   84.4800   11.1297 C.2     1  UNL1       -0.0130
     14 C          62.7021   85.6505   11.9729 C.2     1  UNL1       -0.0222
     15 C          63.3283   85.4236   13.3170 C.3     1  UNL1        0.0434
     16 C          63.5439   84.0262   13.8177 C.3     1  UNL1        0.0771
     17 N          64.3228   92.4751   13.1691 N.pl3   1  UNL1       -0.2022
     18 H          63.6544   93.1228   13.4897 H       1  UNL1        0.2982
     19 C          65.7618   92.8807   13.0467 C.2     1  UNL1        0.3222
     20 N          66.6915   92.7073   14.2111 N.2     1  UNL1       -0.0985
     21 H          66.3572   92.3274   15.0556 H       1  UNL1        0.3633
     22 C          66.2710   93.4596   11.7601 C.ar    1  UNL1        0.1113
     23 C          66.3452   94.9182   11.4179 C.ar    1  UNL1        0.0144
     24 C          66.9155   95.0417   10.0361 C.ar    1  UNL1        0.0077
     25 C          67.1938   93.6594    9.5242 C.ar    1  UNL1        0.0357
     26 S          66.7955   92.6817   10.5897 S.2     1  UNL1       -0.0792
@<TRIPOS>BOND
     1    10    11    1
     2    11    12    1
     3    12    13    1
     4    13    14    2
     5    14     1    1
     6     1     2    2
     7     2     3    1
     8     3     4    2
     9     4     5    1
    10     5     6    1
    11     6    17    1
    12    17    19    1
    13    19    20    2
    14    19    22    1
    15    22    23   ar
    16    23    24   ar
    17    24    25   ar
    18    25    26   ar
    19     6     7    2
    20     7     8    1
    21     8     9    2
    22    14    15    1
    23    15    16    1
    24    16    11    1
    25     9     1    1
    26     9     4    1
    27    26    22   ar
    28    17    18    1
    29    20    21    1
@<TRIPOS>MOLECULE
*****
 26 29 0 0 0
SMALL
GASTEIGER

@<TRIPOS>ATOM
      1 C          62.5649   84.8730   12.1898 C.2     1  UNL1        0.0161
      2 C          61.9306   85.5455   11.0085 C.2     1  UNL1        0.0981
      3 N          62.2245   87.0137   11.0982 N.2     1  UNL1       -0.2477
      4 C          63.0404   87.2485   12.3348 C.2     1  UNL1        0.0670
      5 C          63.6189   88.4962   12.9337 C.3     1  UNL1        0.1127
      6 C          64.4077   88.4207   14.2072 C.2     1  UNL1        0.1186
      7 C          64.6180   87.0976   14.8819 C.2     1  UNL1        0.0359
      8 C          64.0395   85.8500   14.2830 C.2     1  UNL1        0.0044
      9 C          63.2507   85.9254   13.0095 C.2     1  UNL1        0.0153
     10 C          62.3892   79.0031   13.4203 C.3     1  UNL1        0.0899
     11 N          62.4331   80.4705   13.1127 N.3     1  UNL1       -0.2674
     12 C          62.8900   80.9407   11.7635 C.3     1  UNL1        0.0986
     13 C          62.9339   82.4082   11.4559 C.2     1  UNL1       -0.0130
     14 C          62.5210   83.4055   12.4974 C.2     1  UNL1       -0.0222
     15 C          62.0641   82.9353   13.8466 C.3     1  UNL1        0.0434
     16 C          62.0202   81.4678   14.1542 C.3     1  UNL1        0.0771
     17 N          64.9863   89.6684   14.8062 N.pl3   1  UNL1       -0.2022
     18 H          65.6913   89.6048   15.4904 H       1  UNL1        0.2982
     19 C          64.4905   91.0128   14.3627 C.2     1  UNL1        0.3222
     20 N          63.4204   91.7135   15.1463 N.2     1  UNL1       -0.0985
     21 H          63.0435   91.2910   15.9517 H       1  UNL1        0.3633
     22 C          65.0649   91.6566   13.1356 C.ar    1  UNL1        0.1113
     23 C          66.4526   92.2087   12.9971 C.ar    1  UNL1        0.0144
     24 C          66.5978   92.7546   11.6075 C.ar    1  UNL1        0.0077
     25 C          65.2996   92.5399   10.8872 C.ar    1  UNL1        0.0357
     26 S          64.3523   91.8612   11.8317 S.2     1  UNL1       -0.0792
@<TRIPOS>BOND
     1    10    11    1
     2    11    12    1
     3    12    13    1
     4    13    14    2
     5    14     1    1
     6     1     2    2
     7     2     3    1
     8     3     4    2
     9     4     5    1
    10     5     6    1
    11     6    17    1
    12    17    19    1
    13    19    20    2
    14    19    22    1
    15    22    23   ar
    16    23    24   ar
    17    24    25   ar
    18    25    26   ar
    19     6     7    2
    20     7     8    1
    21     8     9    2
    22    14    15    1
    23    15    16    1
    24    16    11    1
    25     9     1    1
    26     9     4    1
    27    26    22   ar
    28    17    18    1
    29    20    21    1
