@<TRIPOS>MOLECULE
*****
 42 45 0 0 0
SMALL
GASTEIGER

@<TRIPOS>ATOM
      1 C          63.3974   95.5102   -4.6519 C.3     1  UNL1        0.0736
      2 C          61.9692   95.4992   -5.1102 C.3     1  UNL1        0.0217
      3 C          61.1288   94.9506   -3.9953 C.3     1  UNL1        0.0283
      4 C          62.0378   94.6225   -2.8481 C.3     1  UNL1        0.1361
      5 C          61.7698   94.0534   -1.4863 C.ar    1  UNL1        0.0114
      6 C          60.3678   93.7076   -1.0805 C.ar    1  UNL1       -0.0002
      7 C          60.1000   93.1385    0.2812 C.ar    1  UNL1        0.0177
      8 C          61.2341   92.9153    1.2372 C.ar    1  UNL1        0.1045
      9 N          62.6361   93.2612    0.8314 N.ar    1  UNL1       -0.2511
     10 C          62.9040   93.8302   -0.5303 C.ar    1  UNL1        0.0562
     11 C          64.3061   94.1761   -0.9362 C.3     1  UNL1        0.0456
     12 C          64.5739   94.7451   -2.2979 C.3     1  UNL1        0.0099
     13 C          63.4398   94.9683   -3.2539 C.3     1  UNL1        0.0430
     14 C          65.5842   94.9902   -5.9548 C.2     1  UNL1        0.2465
     15 O          65.4132   93.5296   -5.6588 O.2     1  UNL1       -0.2726
     16 N          64.5763   95.9805   -5.4514 N.am    1  UNL1       -0.3040
     17 H          64.6886   96.9391   -5.6457 H       1  UNL1        0.1494
     18 C          66.5678   96.8501   -6.2247 C.3     1  UNL1        0.0387
     19 C          66.7631   95.4604   -6.7542 C.3     1  UNL1        0.1563
     20 C          66.9584   94.0706   -7.2837 C.3     1  UNL1        0.0387
     21 O          67.9420   95.9307   -7.5536 O.3     1  UNL1       -0.3781
     22 H          68.3153   95.1847   -8.0488 H       1  UNL1        0.2109
     23 S          60.5911   94.3263   -2.5845 S.O2    1  UNL1        0.0091
     24 O          60.4954   93.5807   -2.8499 O.2     1  UNL1       -0.1684
     25 O          60.4160   95.6982   -2.0040 O.2     1  UNL1       -0.1684
     26 C          59.1444   94.0301   -2.3208 C.ar    1  UNL1        0.1060
     27 C          58.2764   95.0598   -1.6605 C.ar    1  UNL1        0.0207
     28 C          56.8297   94.7636   -1.3968 C.ar    1  UNL1        0.0310
     29 C          56.2512   93.4378   -1.7935 C.ar    1  UNL1        0.1402
     30 F          54.8045   93.1416   -1.5299 F       1  UNL1       -0.2042
     31 C          57.1193   92.4081   -2.4539 C.ar    1  UNL1        0.0310
     32 C          58.5659   92.7043   -2.7175 C.ar    1  UNL1        0.0207
     33 C          60.9662   92.3463    2.5990 C.3     1  UNL1        0.3398
     34 F          59.5210   92.7282    2.4742 F       1  UNL1       -0.2160
     35 C          60.6982   91.7773    3.9607 C.3     1  UNL1        0.4378
     36 F          60.4302   91.2082    5.3225 F       1  UNL1       -0.1666
     37 F          59.2813   92.2637    3.8852 F       1  UNL1       -0.1666
     38 F          62.0719   91.2251    4.2017 F       1  UNL1       -0.1666
     39 C          62.4113   91.9643    2.7238 C.3     1  UNL1        0.4378
     40 F          63.8565   91.5824    2.8486 F       1  UNL1       -0.1666
     41 F          62.2779   90.5679    2.1927 F       1  UNL1       -0.1666
     42 F          63.0637   93.1916    3.2881 F       1  UNL1       -0.1666
@<TRIPOS>BOND
     1    18    19    1
     2    19    20    1
     3    19    21    1
     4    19    14    1
     5    14    15    2
     6    14    16   am
     7     1    16    1
     8     1     2    1
     9     2     3    1
    10     3     4    1
    11     4    23    1
    12    23    24    2
    13    23    25    2
    14    23    26    1
    15    26    27   ar
    16    27    28   ar
    17    28    29   ar
    18    29    30    1
    19    29    31   ar
    20    31    32   ar
    21     4     5    1
    22     5     6   ar
    23     6     7   ar
    24     7     8   ar
    25     8    33    1
    26    33    34    1
    27    33    35    1
    28    35    36    1
    29    35    37    1
    30    35    38    1
    31    33    39    1
    32    39    40    1
    33    39    41    1
    34    39    42    1
    35     8     9   ar
    36     9    10   ar
    37    10    11    1
    38    11    12    1
    39    13    12    1
    40    13     1    1
    41    13     4    1
    42    32    26   ar
    43    10     5   ar
    44    21    22    1
    45    16    17    1
@<TRIPOS>MOLECULE
*****
 42 45 0 0 0
SMALL
GASTEIGER

@<TRIPOS>ATOM
      1 C          61.2508   89.8468    9.9001 C.3     1  UNL1        0.0736
      2 C          60.8869   88.7643   10.8725 C.3     1  UNL1        0.0217
      3 C          61.8443   88.8355   12.0250 C.3     1  UNL1        0.0283
      4 C          62.7998   89.9620   11.7648 C.3     1  UNL1        0.1361
      5 C          63.9567   90.4994   12.5542 C.ar    1  UNL1        0.0114
      6 C          64.3234   89.8744   13.8675 C.ar    1  UNL1       -0.0002
      7 C          65.4802   90.4118   14.6568 C.ar    1  UNL1        0.0177
      8 C          66.2702   91.5743   14.1328 C.ar    1  UNL1        0.1045
      9 N          65.9034   92.1993   12.8195 N.ar    1  UNL1       -0.2511
     10 C          64.7467   91.6619   12.0302 C.ar    1  UNL1        0.0562
     11 C          64.3798   92.2869   10.7168 C.3     1  UNL1        0.0456
     12 C          63.2231   91.7495    9.9276 C.3     1  UNL1        0.0099
     13 C          62.4331   90.5871   10.4516 C.3     1  UNL1        0.0430
     14 C          59.9170   89.0237    7.8280 C.2     1  UNL1        0.2465
     15 O          59.9754   87.6182    8.3487 O.2     1  UNL1       -0.2726
     16 N          60.5546   90.1380    8.6036 N.am    1  UNL1       -0.3040
     17 H          60.5162   91.0605    8.2618 H       1  UNL1        0.1494
     18 C          60.1940   90.4229    6.2579 C.3     1  UNL1        0.0387
     19 C          59.2208   89.3148    6.5316 C.3     1  UNL1        0.1563
     20 C          58.2476   88.2067    6.8054 C.3     1  UNL1        0.0387
     21 O          58.5247   89.6060    5.2352 O.3     1  UNL1       -0.3781
     22 H          57.7813   88.9931    5.1226 H       1  UNL1        0.2109
     23 S          63.0471   89.2378   13.0549 S.O2    1  UNL1        0.0091
     24 O          63.5607   88.6611   12.8570 O.2     1  UNL1       -0.1684
     25 O          62.1129   90.1755   13.7605 O.2     1  UNL1       -0.1684
     26 C          63.2944   88.5135   14.3451 C.ar    1  UNL1        0.1060
     27 C          64.0357   87.2095   14.3429 C.ar    1  UNL1        0.0207
     28 C          64.2830   86.4852   15.6329 C.ar    1  UNL1        0.0310
     29 C          63.7890   87.0650   16.9251 C.ar    1  UNL1        0.1402
     30 F          64.0364   86.3407   18.2153 F       1  UNL1       -0.2042
     31 C          63.0478   88.3690   16.9273 C.ar    1  UNL1        0.0310
     32 C          62.8005   89.0932   15.6373 C.ar    1  UNL1        0.0207
     33 C          67.4270   92.1117   14.9221 C.3     1  UNL1        0.3398
     34 F          68.3600   91.7396   13.8081 F       1  UNL1       -0.2160
     35 C          68.5838   92.6491   15.7114 C.3     1  UNL1        0.4378
     36 F          69.7407   93.1865   16.5007 F       1  UNL1       -0.1666
     37 F          69.2073   91.2849   15.7264 F       1  UNL1       -0.1666
     38 F          68.1060   94.0686   15.7928 F       1  UNL1       -0.1666
     39 C          66.4941   92.4838   16.0361 C.3     1  UNL1        0.4378
     40 F          65.5610   92.8560   17.1502 F       1  UNL1       -0.1666
     41 F          67.3181   91.9266   17.1587 F       1  UNL1       -0.1666
     42 F          65.3514   93.1631   15.3410 F       1  UNL1       -0.1666
@<TRIPOS>BOND
     1    18    19    1
     2    19    20    1
     3    19    21    1
     4    19    14    1
     5    14    15    2
     6    14    16   am
     7     1    16    1
     8     1     2    1
     9     2     3    1
    10     3     4    1
    11     4    23    1
    12    23    24    2
    13    23    25    2
    14    23    26    1
    15    26    27   ar
    16    27    28   ar
    17    28    29   ar
    18    29    30    1
    19    29    31   ar
    20    31    32   ar
    21     4     5    1
    22     5     6   ar
    23     6     7   ar
    24     7     8   ar
    25     8    33    1
    26    33    34    1
    27    33    35    1
    28    35    36    1
    29    35    37    1
    30    35    38    1
    31    33    39    1
    32    39    40    1
    33    39    41    1
    34    39    42    1
    35     8     9   ar
    36     9    10   ar
    37    10    11    1
    38    11    12    1
    39    13    12    1
    40    13     1    1
    41    13     4    1
    42    32    26   ar
    43    10     5   ar
    44    21    22    1
    45    16    17    1
@<TRIPOS>MOLECULE
*****
 42 45 0 0 0
SMALL
GASTEIGER

@<TRIPOS>ATOM
      1 C          62.2655   89.5610   10.3046 C.3     1  UNL1        0.0736
      2 C          62.6945   90.5283    9.2414 C.3     1  UNL1        0.0217
      3 C          63.7911   91.3817    9.8063 C.3     1  UNL1        0.0283
      4 C          64.0399   90.9418   11.2185 C.3     1  UNL1        0.1361
      5 C          65.0033   91.4205   12.2639 C.ar    1  UNL1        0.0114
      6 C          65.9461   92.5458   11.9559 C.ar    1  UNL1       -0.0002
      7 C          66.9094   93.0244   13.0013 C.ar    1  UNL1        0.0177
      8 C          66.9299   92.3779   14.3547 C.ar    1  UNL1        0.1045
      9 N          65.9871   91.2527   14.6627 N.ar    1  UNL1       -0.2511
     10 C          65.0238   90.7740   13.6173 C.ar    1  UNL1        0.0562
     11 C          64.0808   89.6487   13.9253 C.3     1  UNL1        0.0456
     12 C          63.1175   89.1701   12.8799 C.3     1  UNL1        0.0099
     13 C          63.0971   89.8166   11.5265 C.3     1  UNL1        0.0430
     14 C          60.2893   88.5266    8.9726 C.2     1  UNL1        0.2465
     15 O          60.4574   89.5726    7.9107 O.2     1  UNL1       -0.2726
     16 N          61.1932   88.5207   10.1695 N.am    1  UNL1       -0.3040
     17 H          61.0828   87.8342   10.8665 H       1  UNL1        0.1494
     18 C          59.7670   86.7644   10.0317 C.3     1  UNL1        0.0387
     19 C          59.2169   87.4863    8.8375 C.3     1  UNL1        0.1563
     20 C          58.6670   88.2084    7.6433 C.3     1  UNL1        0.0387
     21 O          58.1447   86.4461    8.7025 O.3     1  UNL1       -0.3781
     22 H          57.5783   86.6620    7.9452 H       1  UNL1        0.2109
     23 S          64.9182   92.0710   10.7675 S.O2    1  UNL1        0.0091
     24 O          64.4901   92.7241   10.9276 O.2     1  UNL1       -0.1684
     25 O          65.9673   91.0860   10.3443 O.2     1  UNL1       -0.1684
     26 C          65.7965   93.2003   10.3164 C.ar    1  UNL1        0.1060
     27 C          67.1180   92.9100    9.6689 C.ar    1  UNL1        0.0207
     28 C          67.9963   94.0392    9.2178 C.ar    1  UNL1        0.0310
     29 C          67.5530   95.4587    9.4142 C.ar    1  UNL1        0.1402
     30 F          68.4314   96.5880    8.9632 F       1  UNL1       -0.2042
     31 C          66.2315   95.7490   10.0618 C.ar    1  UNL1        0.0310
     32 C          65.3533   94.6197   10.5128 C.ar    1  UNL1        0.0207
     33 C          67.8933   92.8567   15.4001 C.3     1  UNL1        0.3398
     34 F          66.7441   93.3010   16.2556 F       1  UNL1       -0.2160
     35 C          68.8566   93.3354   16.4455 C.3     1  UNL1        0.4378
     36 F          69.8199   93.8142   17.4909 F       1  UNL1       -0.1666
     37 F          69.1622   91.9141   16.8147 F       1  UNL1       -0.1666
     38 F          68.6706   94.8045   16.2064 F       1  UNL1       -0.1666
     39 C          69.0425   92.4124   14.5446 C.3     1  UNL1        0.4378
     40 F          70.1917   91.9681   13.6891 F       1  UNL1       -0.1666
     41 F          68.4078   91.1574   14.0231 F       1  UNL1       -0.1666
     42 F          70.0781   93.4788   14.7454 F       1  UNL1       -0.1666
@<TRIPOS>BOND
     1    18    19    1
     2    19    20    1
     3    19    21    1
     4    19    14    1
     5    14    15    2
     6    14    16   am
     7     1    16    1
     8     1     2    1
     9     2     3    1
    10     3     4    1
    11     4    23    1
    12    23    24    2
    13    23    25    2
    14    23    26    1
    15    26    27   ar
    16    27    28   ar
    17    28    29   ar
    18    29    30    1
    19    29    31   ar
    20    31    32   ar
    21     4     5    1
    22     5     6   ar
    23     6     7   ar
    24     7     8   ar
    25     8    33    1
    26    33    34    1
    27    33    35    1
    28    35    36    1
    29    35    37    1
    30    35    38    1
    31    33    39    1
    32    39    40    1
    33    39    41    1
    34    39    42    1
    35     8     9   ar
    36     9    10   ar
    37    10    11    1
    38    11    12    1
    39    13    12    1
    40    13     1    1
    41    13     4    1
    42    32    26   ar
    43    10     5   ar
    44    21    22    1
    45    16    17    1
@<TRIPOS>MOLECULE
*****
 42 45 0 0 0
SMALL
GASTEIGER

@<TRIPOS>ATOM
      1 C          59.7101   89.8989    8.1086 C.3     1  UNL1        0.0736
      2 C          60.1476   90.7992    9.2258 C.3     1  UNL1        0.0217
      3 C          60.8486   89.9583   10.2512 C.3     1  UNL1        0.0283
      4 C          60.8444   88.5384    9.7678 C.3     1  UNL1        0.1361
      5 C          61.3904   87.2741   10.3624 C.ar    1  UNL1        0.0114
      6 C          62.0940   87.3109   11.6866 C.ar    1  UNL1       -0.0002
      7 C          62.6399   86.0467   12.2812 C.ar    1  UNL1        0.0177
      8 C          62.4823   84.7456   11.5515 C.ar    1  UNL1        0.1045
      9 N          61.7787   84.7088   10.2273 N.ar    1  UNL1       -0.2511
     10 C          61.2328   85.9731    9.6328 C.ar    1  UNL1        0.0562
     11 C          60.5291   85.9363    8.3085 C.3     1  UNL1        0.0456
     12 C          59.9832   87.2006    7.7140 C.3     1  UNL1        0.0099
     13 C          60.1408   88.5016    8.4436 C.3     1  UNL1        0.0430
     14 C          59.7085   90.9903    5.7509 C.2     1  UNL1        0.2465
     15 O          61.1839   91.2364    5.8639 O.2     1  UNL1       -0.2726
     16 N          58.9716   90.3216    6.8732 N.am    1  UNL1       -0.3040
     17 H          58.0033   90.1600    6.7991 H       1  UNL1        0.1494
     18 C          57.6807   90.9540    5.1293 C.3     1  UNL1        0.0387
     19 C          58.9701   91.4131    4.5155 C.3     1  UNL1        0.1563
     20 C          60.2596   91.8721    3.9019 C.3     1  UNL1        0.0387
     21 O          58.2317   91.8357    3.2802 O.3     1  UNL1       -0.3781
     22 H          58.8586   92.2068    2.6398 H       1  UNL1        0.2109
     23 S          61.5207   88.7298   11.0929 S.O2    1  UNL1        0.0091
     24 O          62.2848   88.8552   10.9032 O.2     1  UNL1       -0.1684
     25 O          60.2077   88.5345   11.7914 O.2     1  UNL1       -0.1684
     26 C          62.1971   88.9213   12.4181 C.ar    1  UNL1        0.1060
     27 C          61.3859   89.2695   13.6308 C.ar    1  UNL1        0.0207
     28 C          62.0622   89.4609   14.9559 C.ar    1  UNL1        0.0310
     29 C          63.5498   89.3042   15.0682 C.ar    1  UNL1        0.1402
     30 F          64.2262   89.4956   16.3934 F       1  UNL1       -0.2042
     31 C          64.3610   88.9560   13.8555 C.ar    1  UNL1        0.0310
     32 C          63.6846   88.7645   12.5305 C.ar    1  UNL1        0.0207
     33 C          63.0283   83.4813   12.1461 C.3     1  UNL1        0.3398
     34 F          62.3945   83.8261   13.4612 F       1  UNL1       -0.2160
     35 C          63.5743   82.2171   12.7408 C.3     1  UNL1        0.4378
     36 F          64.1203   80.9528   13.3354 F       1  UNL1       -0.1666
     37 F          62.1982   81.8407   13.2041 F       1  UNL1       -0.1666
     38 F          65.0067   82.4365   12.3534 F       1  UNL1       -0.1666
     39 C          63.6621   83.1365   10.8311 C.3     1  UNL1        0.4378
     40 F          64.2960   82.7917    9.5160 F       1  UNL1       -0.1666
     41 F          62.9474   81.8350   10.6193 F       1  UNL1       -0.1666
     42 F          64.5899   84.2844   10.5633 F       1  UNL1       -0.1666
@<TRIPOS>BOND
     1    18    19    1
     2    19    20    1
     3    19    21    1
     4    19    14    1
     5    14    15    2
     6    14    16   am
     7     1    16    1
     8     1     2    1
     9     2     3    1
    10     3     4    1
    11     4    23    1
    12    23    24    2
    13    23    25    2
    14    23    26    1
    15    26    27   ar
    16    27    28   ar
    17    28    29   ar
    18    29    30    1
    19    29    31   ar
    20    31    32   ar
    21     4     5    1
    22     5     6   ar
    23     6     7   ar
    24     7     8   ar
    25     8    33    1
    26    33    34    1
    27    33    35    1
    28    35    36    1
    29    35    37    1
    30    35    38    1
    31    33    39    1
    32    39    40    1
    33    39    41    1
    34    39    42    1
    35     8     9   ar
    36     9    10   ar
    37    10    11    1
    38    11    12    1
    39    13    12    1
    40    13     1    1
    41    13     4    1
    42    32    26   ar
    43    10     5   ar
    44    21    22    1
    45    16    17    1
@<TRIPOS>MOLECULE
*****
 42 45 0 0 0
SMALL
GASTEIGER

@<TRIPOS>ATOM
      1 C          60.1685   89.9429    8.9908 C.3     1  UNL1        0.0736
      2 C          60.8241   91.0879    9.7044 C.3     1  UNL1        0.0217
      3 C          61.6944   90.5221   10.7871 C.3     1  UNL1        0.0283
      4 C          61.5767   89.0274   10.7427 C.3     1  UNL1        0.1361
      5 C          62.2065   87.9460   11.5697 C.ar    1  UNL1        0.0114
      6 C          63.1496   88.3039   12.6798 C.ar    1  UNL1       -0.0002
      7 C          63.7794   87.2225   13.5068 C.ar    1  UNL1        0.0177
      8 C          63.4661   85.7832   13.2237 C.ar    1  UNL1        0.1045
      9 N          62.5230   85.4253   12.1136 N.ar    1  UNL1       -0.2511
     10 C          61.8932   86.5066   11.2866 C.ar    1  UNL1        0.0562
     11 C          60.9501   86.1487   10.1764 C.3     1  UNL1        0.0456
     12 C          60.3203   87.2301    9.3494 C.3     1  UNL1        0.0099
     13 C          60.6336   88.6694    9.6325 C.3     1  UNL1        0.0430
     14 C          59.6962   90.5646    6.5129 C.2     1  UNL1        0.2465
     15 O          61.1307   90.9677    6.3406 O.2     1  UNL1       -0.2726
     16 N          59.2150   90.0522    7.8379 N.am    1  UNL1       -0.3040
     17 H          58.2735   89.7877    7.9510 H       1  UNL1        0.1494
     18 C          57.7653   89.7974    6.0853 C.3     1  UNL1        0.0387
     19 C          58.7428   90.6740    5.3599 C.3     1  UNL1        0.1563
     20 C          59.7203   91.5505    4.6347 C.3     1  UNL1        0.0387
     21 O          57.7894   90.7832    4.2071 O.3     1  UNL1       -0.3781
     22 H          58.1798   91.3412    3.5164 H       1  UNL1        0.2109
     23 S          62.4956   89.5355   11.8139 S.O2    1  UNL1        0.0091
     24 O          63.2065   89.5753   11.4553 O.2     1  UNL1       -0.1684
     25 O          61.3462   89.5851   12.7763 O.2     1  UNL1       -0.1684
     26 C          63.4145   90.0437   12.8851 C.ar    1  UNL1        0.1060
     27 C          63.0239   89.9217   14.3282 C.ar    1  UNL1        0.0207
     28 C          63.9427   90.4298   15.3994 C.ar    1  UNL1        0.0310
     29 C          65.2522   91.0599   15.0275 C.ar    1  UNL1        0.1402
     30 F          66.1711   91.5680   16.0987 F       1  UNL1       -0.2042
     31 C          65.6428   91.1818   13.5844 C.ar    1  UNL1        0.0310
     32 C          64.7239   90.6737   12.5132 C.ar    1  UNL1        0.0207
     33 C          64.0959   84.7018   14.0508 C.3     1  UNL1        0.3398
     34 F          64.7995   84.1803   12.8331 F       1  UNL1       -0.2160
     35 C          64.7257   83.6204   14.8778 C.3     1  UNL1        0.4378
     36 F          65.3555   82.5390   15.7048 F       1  UNL1       -0.1666
     37 F          66.0787   84.2179   14.6286 F       1  UNL1       -0.1666
     38 F          63.4594   82.8955   15.2259 F       1  UNL1       -0.1666
     39 C          63.3922   85.2233   15.2685 C.3     1  UNL1        0.4378
     40 F          62.6886   85.7448   16.4863 F       1  UNL1       -0.1666
     41 F          62.0075   84.8039   14.8732 F       1  UNL1       -0.1666
     42 F          64.4920   85.8216   16.0948 F       1  UNL1       -0.1666
@<TRIPOS>BOND
     1    18    19    1
     2    19    20    1
     3    19    21    1
     4    19    14    1
     5    14    15    2
     6    14    16   am
     7     1    16    1
     8     1     2    1
     9     2     3    1
    10     3     4    1
    11     4    23    1
    12    23    24    2
    13    23    25    2
    14    23    26    1
    15    26    27   ar
    16    27    28   ar
    17    28    29   ar
    18    29    30    1
    19    29    31   ar
    20    31    32   ar
    21     4     5    1
    22     5     6   ar
    23     6     7   ar
    24     7     8   ar
    25     8    33    1
    26    33    34    1
    27    33    35    1
    28    35    36    1
    29    35    37    1
    30    35    38    1
    31    33    39    1
    32    39    40    1
    33    39    41    1
    34    39    42    1
    35     8     9   ar
    36     9    10   ar
    37    10    11    1
    38    11    12    1
    39    13    12    1
    40    13     1    1
    41    13     4    1
    42    32    26   ar
    43    10     5   ar
    44    21    22    1
    45    16    17    1
