@<TRIPOS>MOLECULE
*****
 45 50 0 0 0
SMALL
GASTEIGER

@<TRIPOS>ATOM
      1 C          59.6502   90.1198    6.1636 C.ar    1  UNL1        0.1348
      2 C          59.1341   88.7129    6.2278 C.ar    1  UNL1        0.0346
      3 C          59.5678   87.8049    7.3402 C.ar    1  UNL1        0.0065
      4 C          60.5176   88.3038    8.3884 C.ar    1  UNL1        0.0432
      5 C          61.0338   89.7107    8.3243 C.ar    1  UNL1        0.1256
      6 N          60.6001   90.6187    7.2119 N.ar    1  UNL1       -0.2222
      7 C          60.9514   87.3957    9.5008 C.ar    1  UNL1        0.0850
      8 C          60.5509   87.5129   10.9416 C.ar    1  UNL1        0.0991
      9 N          61.2137   86.4007   11.6989 N.ar    1  UNL1       -0.2265
     10 C          62.0239   85.5961   10.7262 C.ar    1  UNL1        0.1474
     11 C          62.8883   84.3829   10.9020 C.ar    1  UNL1        0.0332
     12 C          63.5906   83.7846    9.7192 C.ar    1  UNL1       -0.0174
     13 C          64.4550   82.5714    9.8950 C.3     1  UNL1        0.0312
     14 C          63.4285   84.3995    8.3607 C.ar    1  UNL1        0.0149
     15 C          62.5641   85.6127    8.1849 C.ar    1  UNL1        0.0811
     16 N          61.8617   86.2110    9.3677 N.ar    1  UNL1       -0.2888
     17 C          59.6463   88.5588   11.5229 C.ar    1  UNL1        0.0222
     18 C          58.6489   88.1847   12.5791 C.ar    1  UNL1        0.0222
     19 C          57.7443   89.2306   13.1605 C.ar    1  UNL1        0.0989
     20 N          57.8372   90.6504   12.6858 N.ar    1  UNL1       -0.2423
     21 C          58.8345   91.0245   11.6297 C.ar    1  UNL1        0.0989
     22 C          59.7391   89.9786   11.0483 C.ar    1  UNL1        0.0222
     23 C          60.2431   91.7313    4.2139 C.2     1  UNL1        0.2414
     24 O          61.7035   91.5267    4.4888 O.2     1  UNL1       -0.2733
     25 N          59.2165   91.0278    5.0513 N.am    1  UNL1       -0.2682
     26 H          58.2580   91.1621    4.8708 H       1  UNL1        0.1563
     27 C          59.8094   92.6393    3.1015 C.3     1  UNL1        0.1319
     28 C          60.1613   94.0969    3.1427 C.3     1  UNL1        0.0270
     29 C          59.1407   92.7211    0.5923 C.3     1  UNL1        0.0862
     30 N          59.0237   92.0898    1.9479 N.3     1  UNL1       -0.2902
     31 H          59.2990   91.1133    1.8427 H       1  UNL1        0.1237
     32 C          61.9837   90.2096    9.3725 C.1     1  UNL1       -0.0404
     33 C          62.9335   90.7085   10.4208 C.1     1  UNL1       -0.0582
     34 C          63.8835   91.2075   11.4690 C.ar    1  UNL1        0.0451
     35 C          65.1902   91.8233   11.0650 C.ar    1  UNL1        0.0097
     36 C          66.1400   92.3222   12.1133 C.ar    1  UNL1        0.0186
     37 C          65.7831   92.2053   13.5655 C.ar    1  UNL1        0.0882
     38 C          64.4764   91.5895   13.9695 C.ar    1  UNL1        0.1534
     39 C          63.5266   91.0906   12.9213 C.ar    1  UNL1        0.0464
     40 O          64.1195   91.4726   15.4217 O.3     1  UNL1       -0.4643
     41 C          65.0694   91.9715   16.4700 C.3     1  UNL1        0.2900
     42 C          66.3762   92.5873   16.0660 C.2     1  UNL1        0.2740
     43 O          67.3260   93.0863   17.1143 O.2     1  UNL1       -0.2705
     44 N          66.7330   92.7042   14.6138 N.am    1  UNL1       -0.2512
     45 C          68.0397   93.3200   14.2098 C.3     1  UNL1        0.1202
@<TRIPOS>BOND
     1    29    30    1
     2    30    27    1
     3    27    28    1
     4    27    23    1
     5    23    24    2
     6    23    25   am
     7    25     1    1
     8     1     2   ar
     9     2     3   ar
    10     3     4   ar
    11     4     7    1
    12     7     8   ar
    13     8    17    1
    14    17    18   ar
    15    18    19   ar
    16    19    20   ar
    17    20    21   ar
    18    21    22   ar
    19     8     9   ar
    20     9    10   ar
    21    10    11   ar
    22    11    12   ar
    23    12    13    1
    24    12    14   ar
    25    14    15   ar
    26    15    16   ar
    27     4     5   ar
    28     5    32    1
    29    32    33    3
    30    33    34    1
    31    34    35   ar
    32    35    36   ar
    33    36    37   ar
    34    37    38   ar
    35    38    39   ar
    36    38    40    1
    37    40    41    1
    38    41    42    1
    39    42    43    2
    40    42    44   am
    41    44    45    1
    42     5     6   ar
    43     6     1   ar
    44    16     7   ar
    45    39    34   ar
    46    22    17   ar
    47    16    10   ar
    48    44    37    1
    49    30    31    1
    50    25    26    1
@<TRIPOS>MOLECULE
*****
 45 50 0 0 0
SMALL
GASTEIGER

@<TRIPOS>ATOM
      1 C          59.7579   89.8927    6.4207 C.ar    1  UNL1        0.1348
      2 C          59.2677   88.4756    6.4593 C.ar    1  UNL1        0.0346
      3 C          59.7013   87.5619    7.5670 C.ar    1  UNL1        0.0065
      4 C          60.6251   88.0653    8.6362 C.ar    1  UNL1        0.0432
      5 C          61.1153   89.4824    8.5976 C.ar    1  UNL1        0.1256
      6 N          60.6817   90.3961    7.4898 N.ar    1  UNL1       -0.2222
      7 C          61.0588   87.1516    9.7439 C.ar    1  UNL1        0.0850
      8 C          60.6404   87.2480   11.1811 C.ar    1  UNL1        0.0991
      9 N          61.3099   86.1370   11.9344 N.ar    1  UNL1       -0.2265
     10 C          62.1422   85.3540   10.9627 C.ar    1  UNL1        0.1474
     11 C          63.0214   84.1510   11.1357 C.ar    1  UNL1        0.0332
     12 C          63.7453   83.5751    9.9550 C.ar    1  UNL1       -0.0174
     13 C          64.6244   82.3721   10.1280 C.3     1  UNL1        0.0312
     14 C          63.5901   84.2021    8.6011 C.ar    1  UNL1        0.0149
     15 C          62.7109   85.4050    8.4281 C.ar    1  UNL1        0.0811
     16 N          61.9870   85.9810    9.6089 N.ar    1  UNL1       -0.2888
     17 C          59.7148   88.2750   11.7630 C.ar    1  UNL1        0.0222
     18 C          59.7589   89.6905   11.2682 C.ar    1  UNL1        0.0222
     19 C          58.8334   90.7175   11.8500 C.ar    1  UNL1        0.0989
     20 N          57.8638   90.3292   12.9266 N.ar    1  UNL1       -0.2423
     21 C          57.8197   88.9139   13.4214 C.ar    1  UNL1        0.0989
     22 C          58.7452   87.8868   12.8395 C.ar    1  UNL1        0.0222
     23 C          60.3499   91.4599    4.4349 C.2     1  UNL1        0.2414
     24 O          61.8092   91.1997    4.6646 O.2     1  UNL1       -0.2733
     25 N          59.3242   90.8064    5.3129 N.am    1  UNL1       -0.2682
     26 H          58.3665   90.9772    5.1622 H       1  UNL1        0.1563
     27 C          59.9162   92.3736    3.3272 C.3     1  UNL1        0.1319
     28 C          58.4861   92.3773    2.8744 C.3     1  UNL1        0.0270
     29 C          61.7431   92.7860    1.5264 C.3     1  UNL1        0.0862
     30 N          60.9126   93.2837    2.6722 N.3     1  UNL1       -0.2902
     31 H          60.3928   94.0918    2.3299 H       1  UNL1        0.1237
     32 C          62.0392   89.9858    9.6668 C.1     1  UNL1       -0.0404
     33 C          62.9630   90.4892   10.7359 C.1     1  UNL1       -0.0582
     34 C          63.8868   90.9927   11.8051 C.ar    1  UNL1        0.0451
     35 C          64.1358   90.1658   13.0316 C.ar    1  UNL1        0.0097
     36 C          65.0597   90.6692   14.1007 C.ar    1  UNL1        0.0186
     37 C          65.7345   91.9996   13.9433 C.ar    1  UNL1        0.0882
     38 C          65.4855   92.8265   12.7169 C.ar    1  UNL1        0.1534
     39 C          64.5617   92.3230   11.6478 C.ar    1  UNL1        0.0464
     40 O          66.1603   94.1568   12.5596 O.3     1  UNL1       -0.4643
     41 C          67.0841   94.6603   13.6287 C.3     1  UNL1        0.2900
     42 C          67.3331   93.8334   14.8552 C.2     1  UNL1        0.2740
     43 O          68.2570   94.3369   15.9243 O.2     1  UNL1       -0.2705
     44 N          66.6583   92.5030   15.0125 N.am    1  UNL1       -0.2512
     45 C          66.9073   91.6761   16.2390 C.3     1  UNL1        0.1202
@<TRIPOS>BOND
     1    29    30    1
     2    30    27    1
     3    27    28    1
     4    27    23    1
     5    23    24    2
     6    23    25   am
     7    25     1    1
     8     1     2   ar
     9     2     3   ar
    10     3     4   ar
    11     4     7    1
    12     7     8   ar
    13     8    17    1
    14    17    18   ar
    15    18    19   ar
    16    19    20   ar
    17    20    21   ar
    18    21    22   ar
    19     8     9   ar
    20     9    10   ar
    21    10    11   ar
    22    11    12   ar
    23    12    13    1
    24    12    14   ar
    25    14    15   ar
    26    15    16   ar
    27     4     5   ar
    28     5    32    1
    29    32    33    3
    30    33    34    1
    31    34    35   ar
    32    35    36   ar
    33    36    37   ar
    34    37    38   ar
    35    38    39   ar
    36    38    40    1
    37    40    41    1
    38    41    42    1
    39    42    43    2
    40    42    44   am
    41    44    45    1
    42     5     6   ar
    43     6     1   ar
    44    16     7   ar
    45    39    34   ar
    46    22    17   ar
    47    16    10   ar
    48    44    37    1
    49    30    31    1
    50    25    26    1
@<TRIPOS>MOLECULE
*****
 45 50 0 0 0
SMALL
GASTEIGER

@<TRIPOS>ATOM
      1 C          64.3580   89.9131   13.3515 C.ar    1  UNL1        0.1348
      2 C          63.6017   90.7442   12.3579 C.ar    1  UNL1        0.0346
      3 C          62.7202   90.0807   11.3417 C.ar    1  UNL1        0.0065
      4 C          62.5949   88.5861   11.3191 C.ar    1  UNL1        0.0432
      5 C          63.3512   87.7550   12.3127 C.ar    1  UNL1        0.1256
      6 N          64.2328   88.4186   13.3289 N.ar    1  UNL1       -0.2222
      7 C          61.7134   87.9226   10.3029 C.ar    1  UNL1        0.0850
      8 C          60.2355   88.1279   10.1494 C.ar    1  UNL1        0.0991
      9 N          59.7637   87.2695    9.0134 N.ar    1  UNL1       -0.2265
     10 C          60.9500   86.5336    8.4647 C.ar    1  UNL1        0.1474
     11 C          61.0888   85.5481    7.3424 C.ar    1  UNL1        0.0332
     12 C          62.4325   84.9663    7.0171 C.ar    1  UNL1       -0.0174
     13 C          62.5712   83.9809    5.8947 C.3     1  UNL1        0.0312
     14 C          63.6376   85.3700    7.8139 C.ar    1  UNL1        0.0149
     15 C          63.4988   86.3554    8.9363 C.ar    1  UNL1        0.0811
     16 N          62.1550   86.9373    9.2617 N.ar    1  UNL1       -0.2888
     17 C          59.3795   89.0328   10.9853 C.ar    1  UNL1        0.0222
     18 C          58.5256   88.4596   12.0773 C.ar    1  UNL1        0.0222
     19 C          57.6697   89.3645   12.9132 C.ar    1  UNL1        0.0989
     20 N          57.6676   90.8424   12.6570 N.ar    1  UNL1       -0.2423
     21 C          58.5215   91.4155   11.5650 C.ar    1  UNL1        0.0989
     22 C          59.3774   90.5106   10.7292 C.ar    1  UNL1        0.0222
     23 C          66.1578   91.6877   13.9527 C.2     1  UNL1        0.2414
     24 O          66.1946   92.1353   12.5215 O.2     1  UNL1       -0.2733
     25 N          65.2395   90.5766   14.3677 N.am    1  UNL1       -0.2682
     26 H          65.2154   90.2829   15.3070 H       1  UNL1        0.1563
     27 C          67.0393   92.3512   14.9689 C.3     1  UNL1        0.1319
     28 C          66.5072   92.6575   16.3376 C.3     1  UNL1        0.0270
     29 C          69.2938   93.4857   15.5853 C.3     1  UNL1        0.0862
     30 N          68.4529   92.7085   14.6165 N.3     1  UNL1       -0.2902
     31 H          68.9427   91.8315   14.4390 H       1  UNL1        0.1237
     32 C          63.2260   86.2604   12.2902 C.1     1  UNL1       -0.0404
     33 C          63.1008   84.7658   12.2676 C.1     1  UNL1       -0.0582
     34 C          62.9756   83.2712   12.2450 C.ar    1  UNL1        0.0451
     35 C          62.7102   82.5215   13.5168 C.ar    1  UNL1        0.0097
     36 C          62.5850   81.0270   13.4942 C.ar    1  UNL1        0.0186
     37 C          62.7252   80.2821   12.1999 C.ar    1  UNL1        0.0882
     38 C          62.9907   81.0317   10.9281 C.ar    1  UNL1        0.1534
     39 C          63.1159   82.5263   10.9507 C.ar    1  UNL1        0.0464
     40 O          63.1310   80.2868    9.6337 O.3     1  UNL1       -0.4643
     41 C          63.0058   78.7922    9.6111 C.3     1  UNL1        0.2900
     42 C          62.7403   78.0425   10.8829 C.2     1  UNL1        0.2740
     43 O          62.6151   76.5479   10.8604 O.2     1  UNL1       -0.2705
     44 N          62.6000   78.7874   12.1773 N.am    1  UNL1       -0.2512
     45 C          62.3346   78.0378   13.4491 C.3     1  UNL1        0.1202
@<TRIPOS>BOND
     1    29    30    1
     2    30    27    1
     3    27    28    1
     4    27    23    1
     5    23    24    2
     6    23    25   am
     7    25     1    1
     8     1     2   ar
     9     2     3   ar
    10     3     4   ar
    11     4     7    1
    12     7     8   ar
    13     8    17    1
    14    17    18   ar
    15    18    19   ar
    16    19    20   ar
    17    20    21   ar
    18    21    22   ar
    19     8     9   ar
    20     9    10   ar
    21    10    11   ar
    22    11    12   ar
    23    12    13    1
    24    12    14   ar
    25    14    15   ar
    26    15    16   ar
    27     4     5   ar
    28     5    32    1
    29    32    33    3
    30    33    34    1
    31    34    35   ar
    32    35    36   ar
    33    36    37   ar
    34    37    38   ar
    35    38    39   ar
    36    38    40    1
    37    40    41    1
    38    41    42    1
    39    42    43    2
    40    42    44   am
    41    44    45    1
    42     5     6   ar
    43     6     1   ar
    44    16     7   ar
    45    39    34   ar
    46    22    17   ar
    47    16    10   ar
    48    44    37    1
    49    30    31    1
    50    25    26    1
@<TRIPOS>MOLECULE
*****
 45 50 0 0 0
SMALL
GASTEIGER

@<TRIPOS>ATOM
      1 C          59.7258   90.6024    5.6421 C.ar    1  UNL1        0.1348
      2 C          58.9079   89.3579    5.8212 C.ar    1  UNL1        0.0346
      3 C          59.0629   88.5308    7.0629 C.ar    1  UNL1        0.0065
      4 C          60.0359   88.9481    8.1255 C.ar    1  UNL1        0.0432
      5 C          60.8538   90.1926    7.9464 C.ar    1  UNL1        0.1256
      6 N          60.6988   91.0198    6.7047 N.ar    1  UNL1       -0.2222
      7 C          60.1909   88.1210    9.3672 C.ar    1  UNL1        0.0850
      8 C          60.7496   86.7307    9.4364 C.ar    1  UNL1        0.0991
      9 N          60.7185   86.2894   10.8697 N.ar    1  UNL1       -0.2265
     10 C          60.1405   87.4070   11.6864 C.ar    1  UNL1        0.1474
     11 C          59.8689   87.5402   13.1555 C.ar    1  UNL1        0.0332
     12 C          59.2714   88.8053   13.6961 C.ar    1  UNL1       -0.0174
     13 C          58.9998   88.9385   15.1653 C.3     1  UNL1        0.0312
     14 C          58.9453   89.9374   12.7676 C.ar    1  UNL1        0.0149
     15 C          59.2168   89.8042   11.2984 C.ar    1  UNL1        0.0811
     16 N          59.8145   88.5390   10.7577 N.ar    1  UNL1       -0.2888
     17 C          61.2514   85.9233    8.2761 C.ar    1  UNL1        0.0222
     18 C          60.2946   85.4497    7.2223 C.ar    1  UNL1        0.0222
     19 C          60.7964   84.6424    6.0619 C.ar    1  UNL1        0.0989
     20 N          62.2549   84.3086    5.9553 N.ar    1  UNL1       -0.2423
     21 C          63.2116   84.7822    7.0091 C.ar    1  UNL1        0.0989
     22 C          62.7098   85.5896    8.1694 C.ar    1  UNL1        0.0222
     23 C          60.7833   91.8559    3.6270 C.2     1  UNL1        0.2414
     24 O          62.1508   91.4551    4.0953 O.2     1  UNL1       -0.2733
     25 N          59.5708   91.4295    4.4004 N.am    1  UNL1       -0.2682
     26 H          58.6733   91.6925    4.0930 H       1  UNL1        0.1563
     27 C          60.6282   92.6830    2.3853 C.3     1  UNL1        0.1319
     28 C          61.7872   93.4816    1.8666 C.3     1  UNL1        0.0270
     29 C          59.2551   93.1577    0.2315 C.3     1  UNL1        0.0862
     30 N          59.3143   92.7115    1.6623 N.3     1  UNL1       -0.2902
     31 H          58.9422   91.7622    1.6903 H       1  UNL1        0.1237
     32 C          61.8269   90.6101    9.0090 C.1     1  UNL1       -0.0404
     33 C          62.7998   91.0276   10.0715 C.1     1  UNL1       -0.0582
     34 C          63.7729   91.4450   11.1341 C.ar    1  UNL1        0.0451
     35 C          65.0768   92.0791   10.7498 C.ar    1  UNL1        0.0097
     36 C          66.0497   92.4965   11.8123 C.ar    1  UNL1        0.0186
     37 C          65.7187   92.2798   13.2592 C.ar    1  UNL1        0.0882
     38 C          64.4148   91.6457   13.6436 C.ar    1  UNL1        0.1534
     39 C          63.4419   91.2283   12.5810 C.ar    1  UNL1        0.0464
     40 O          64.0839   91.4291   15.0905 O.3     1  UNL1       -0.4643
     41 C          65.0568   91.8465   16.1530 C.3     1  UNL1        0.2900
     42 C          66.3608   92.4806   15.7687 C.2     1  UNL1        0.2740
     43 O          67.3338   92.8980   16.8313 O.2     1  UNL1       -0.2705
     44 N          66.6918   92.6973   14.3218 N.am    1  UNL1       -0.2512
     45 C          67.9957   93.3313   13.9375 C.3     1  UNL1        0.1202
@<TRIPOS>BOND
     1    29    30    1
     2    30    27    1
     3    27    28    1
     4    27    23    1
     5    23    24    2
     6    23    25   am
     7    25     1    1
     8     1     2   ar
     9     2     3   ar
    10     3     4   ar
    11     4     7    1
    12     7     8   ar
    13     8    17    1
    14    17    18   ar
    15    18    19   ar
    16    19    20   ar
    17    20    21   ar
    18    21    22   ar
    19     8     9   ar
    20     9    10   ar
    21    10    11   ar
    22    11    12   ar
    23    12    13    1
    24    12    14   ar
    25    14    15   ar
    26    15    16   ar
    27     4     5   ar
    28     5    32    1
    29    32    33    3
    30    33    34    1
    31    34    35   ar
    32    35    36   ar
    33    36    37   ar
    34    37    38   ar
    35    38    39   ar
    36    38    40    1
    37    40    41    1
    38    41    42    1
    39    42    43    2
    40    42    44   am
    41    44    45    1
    42     5     6   ar
    43     6     1   ar
    44    16     7   ar
    45    39    34   ar
    46    22    17   ar
    47    16    10   ar
    48    44    37    1
    49    30    31    1
    50    25    26    1
@<TRIPOS>MOLECULE
*****
 45 50 0 0 0
SMALL
GASTEIGER

@<TRIPOS>ATOM
      1 C          59.1215   89.2167    7.2966 C.ar    1  UNL1        0.1348
      2 C          59.0619   87.7343    7.0756 C.ar    1  UNL1        0.0346
      3 C          59.9656   86.8233    7.8523 C.ar    1  UNL1        0.0065
      4 C          60.9289   87.3946    8.8501 C.ar    1  UNL1        0.0432
      5 C          60.9885   88.8770    9.0711 C.ar    1  UNL1        0.1256
      6 N          60.0848   89.7881    8.2943 N.ar    1  UNL1       -0.2222
      7 C          61.8326   86.4836    9.6269 C.ar    1  UNL1        0.0850
      8 C          62.5472   85.2804    9.0869 C.ar    1  UNL1        0.0991
      9 N          63.3366   84.6689   10.2063 N.ar    1  UNL1       -0.2265
     10 C          63.1098   85.4943   11.4381 C.ar    1  UNL1        0.1474
     11 C          63.6297   85.3695   12.8396 C.ar    1  UNL1        0.0332
     12 C          63.2200   86.3663   13.8829 C.ar    1  UNL1       -0.0174
     13 C          63.7398   86.2415   15.2844 C.3     1  UNL1        0.0312
     14 C          62.2905   87.4878   13.5249 C.ar    1  UNL1        0.0149
     15 C          61.7706   87.6126   12.1234 C.ar    1  UNL1        0.0811
     16 N          62.1803   86.6158   11.0800 N.ar    1  UNL1       -0.2888
     17 C          62.4836   84.7769    7.6753 C.ar    1  UNL1        0.0222
     18 C          63.7129   84.7965    6.8159 C.ar    1  UNL1        0.0222
     19 C          63.6493   84.2931    5.4043 C.ar    1  UNL1        0.0989
     20 N          62.3564   83.7700    4.8522 N.ar    1  UNL1       -0.2423
     21 C          61.1272   83.7504    5.7115 C.ar    1  UNL1        0.0989
     22 C          61.1908   84.2538    7.1231 C.ar    1  UNL1        0.0222
     23 C          58.7373   90.8463    5.3099 C.2     1  UNL1        0.2414
     24 O          60.1604   90.6538    4.8767 O.2     1  UNL1       -0.2733
     25 N          58.2178   90.1278    6.5198 N.am    1  UNL1       -0.2682
     26 H          57.2838   90.2541    6.8041 H       1  UNL1        0.1563
     27 C          57.8336   91.7573    4.5332 C.3     1  UNL1        0.1319
     28 C          56.4213   91.9787    4.9876 C.3     1  UNL1        0.0270
     29 C          59.7041   93.0755    3.3029 C.3     1  UNL1        0.0862
     30 N          58.3421   92.4469    3.3020 N.3     1  UNL1       -0.2902
     31 H          58.3381   91.7540    2.5535 H       1  UNL1        0.1237
     32 C          61.9518   89.4485   10.0689 C.1     1  UNL1       -0.0404
     33 C          62.9152   90.0198   11.0666 C.1     1  UNL1       -0.0582
     34 C          63.8785   90.5913   12.0644 C.ar    1  UNL1        0.0451
     35 C          64.2719   89.7909   13.2705 C.ar    1  UNL1        0.0097
     36 C          65.2352   90.3624   14.2682 C.ar    1  UNL1        0.0186
     37 C          65.8051   91.7342   14.0598 C.ar    1  UNL1        0.0882
     38 C          65.4117   92.5345   12.8537 C.ar    1  UNL1        0.1534
     39 C          64.4485   91.9630   11.8560 C.ar    1  UNL1        0.0464
     40 O          65.9817   93.9062   12.6453 O.3     1  UNL1       -0.4643
     41 C          66.9450   94.4777   13.6430 C.3     1  UNL1        0.2900
     42 C          67.3384   93.6773   14.8492 C.2     1  UNL1        0.2740
     43 O          68.3017   94.2488   15.8469 O.2     1  UNL1       -0.2705
     44 N          66.7684   92.3056   15.0576 N.am    1  UNL1       -0.2512
     45 C          67.1618   91.5053   16.2637 C.3     1  UNL1        0.1202
@<TRIPOS>BOND
     1    29    30    1
     2    30    27    1
     3    27    28    1
     4    27    23    1
     5    23    24    2
     6    23    25   am
     7    25     1    1
     8     1     2   ar
     9     2     3   ar
    10     3     4   ar
    11     4     7    1
    12     7     8   ar
    13     8    17    1
    14    17    18   ar
    15    18    19   ar
    16    19    20   ar
    17    20    21   ar
    18    21    22   ar
    19     8     9   ar
    20     9    10   ar
    21    10    11   ar
    22    11    12   ar
    23    12    13    1
    24    12    14   ar
    25    14    15   ar
    26    15    16   ar
    27     4     5   ar
    28     5    32    1
    29    32    33    3
    30    33    34    1
    31    34    35   ar
    32    35    36   ar
    33    36    37   ar
    34    37    38   ar
    35    38    39   ar
    36    38    40    1
    37    40    41    1
    38    41    42    1
    39    42    43    2
    40    42    44   am
    41    44    45    1
    42     5     6   ar
    43     6     1   ar
    44    16     7   ar
    45    39    34   ar
    46    22    17   ar
    47    16    10   ar
    48    44    37    1
    49    30    31    1
    50    25    26    1
