@<TRIPOS>MOLECULE
*****
 31 35 0 0 0
SMALL
GASTEIGER

@<TRIPOS>ATOM
      1 C          62.5622   89.5224   11.9907 C.ar    1  UNL1        0.0957
      2 C          61.8622   90.4241   11.0177 C.ar    1  UNL1        0.1191
      3 N          61.2489   89.8531    9.7736 N.ar    1  UNL1       -0.2223
      4 C          61.3356   88.3804    9.5025 C.ar    1  UNL1        0.1784
      5 N          60.8302   87.5368    8.3698 N.ar    1  UNL1       -0.2236
      6 C          61.2178   86.1137    8.6428 C.ar    1  UNL1        0.1066
      7 C          61.9628   86.0778    9.9442 C.ar    1  UNL1        0.0910
      8 C          62.0357   87.4786   10.4755 C.ar    1  UNL1        0.0988
      9 N          62.6490   88.0496   11.7196 N.ar    1  UNL1       -0.3481
     10 H          63.1084   87.4578   12.3583 H       1  UNL1        0.1661
     11 C          63.6076   90.5309   17.0672 C.3     1  UNL1        0.1537
     12 N          63.6560   90.5570   15.5682 N.ar    1  UNL1       -0.2487
     13 N          62.7864   89.7574   14.6439 N.ar    1  UNL1       -0.1677
     14 C          63.1755   90.0934   13.2348 C.ar    1  UNL1        0.1193
     15 C          64.2857   91.1008   13.2882 C.ar    1  UNL1        0.0382
     16 C          65.0645   91.7941   12.2100 C.ar    1  UNL1        0.0054
     17 C          66.1403   92.7740   12.5739 C.ar    1  UNL1        0.0298
     18 C          66.4373   93.0605   14.0160 C.ar    1  UNL1        0.1416
     19 F          67.5132   94.0404   14.3799 F       1  UNL1       -0.2041
     20 C          65.6585   92.3671   15.0943 C.ar    1  UNL1        0.0484
     21 C          64.5827   91.3873   14.7303 C.ar    1  UNL1        0.0817
     22 C          62.5347   84.8555   10.5993 C.2     1  UNL1        0.2488
     23 O          63.4613   83.9582    9.8336 O.2     1  UNL1       -0.2700
     24 N          62.1799   84.5305   12.0200 N.am    1  UNL1       -0.3022
     25 H          61.5717   85.1194   12.5226 H       1  UNL1        0.1497
     26 C          62.7517   83.3083   12.6750 C.3     1  UNL1        0.0767
     27 C          63.9392   83.0300   13.5483 C.3     1  UNL1        0.0489
     28 C          63.5604   81.5797   13.6014 C.3     1  UNL1        0.1138
     29 O          64.1323   80.3574   14.2564 O.3     1  UNL1       -0.3843
     30 C          62.3730   81.8578   12.7281 C.3     1  UNL1        0.0489
     31 H          63.5803   79.5885   14.0440 H       1  UNL1        0.2103
@<TRIPOS>BOND
     1    11    12    1
     2    12    13   ar
     3    13    14   ar
     4    14     1    1
     5     1     2   ar
     6     2     3   ar
     7     3     4   ar
     8     4     5   ar
     9     5     6   ar
    10     6     7   ar
    11     7    22    1
    12    22    23    2
    13    22    24   am
    14    26    24    1
    15    26    27    1
    16    27    28    1
    17    28    29    1
    18    28    30    1
    19     7     8   ar
    20     8     9   ar
    21    14    15   ar
    22    15    16   ar
    23    16    17   ar
    24    17    18   ar
    25    18    19    1
    26    18    20   ar
    27    20    21   ar
    28    21    12   ar
    29     9     1   ar
    30    21    15   ar
    31     8     4    1
    32    30    26    1
    33    24    25    1
    34    29    31    1
    35     9    10    1
@<TRIPOS>MOLECULE
*****
 31 35 0 0 0
SMALL
GASTEIGER

@<TRIPOS>ATOM
      1 C          63.7133   89.4415   13.2203 C.ar    1  UNL1        0.0957
      2 C          63.6816   89.2407   14.7063 C.ar    1  UNL1        0.1191
      3 N          64.3651   90.2230   15.6108 N.ar    1  UNL1       -0.2223
      4 C          65.0803   91.4062   15.0290 C.ar    1  UNL1        0.1784
      5 N          65.8384   92.5332   15.6654 N.ar    1  UNL1       -0.2236
      6 C          66.3387   93.4307   14.5726 C.ar    1  UNL1        0.1066
      7 C          65.8898   92.8583   13.2608 C.ar    1  UNL1        0.0910
      8 C          65.1120   91.6071   13.5429 C.ar    1  UNL1        0.0988
      9 N          64.4285   90.6248   12.6385 N.ar    1  UNL1       -0.3481
     10 H          64.4494   90.7567   11.6631 H       1  UNL1        0.1661
     11 C          62.1418   84.9218   10.9881 C.3     1  UNL1        0.1537
     12 N          62.3075   86.3817   11.2899 N.ar    1  UNL1       -0.2487
     13 N          63.1611   86.9662   12.3761 N.ar    1  UNL1       -0.1677
     14 C          63.0299   88.4592   12.3159 C.ar    1  UNL1        0.1193
     15 C          62.0952   88.7975   11.1925 C.ar    1  UNL1        0.0382
     16 C          61.5930   90.1088   10.6650 C.ar    1  UNL1        0.0054
     17 C          60.6444   90.1361    9.5035 C.ar    1  UNL1        0.0298
     18 C          60.1979   88.8521    8.8694 C.ar    1  UNL1        0.1416
     19 F          59.2492   88.8795    7.7077 F       1  UNL1       -0.2041
     20 C          60.7001   87.5408    9.3968 C.ar    1  UNL1        0.0484
     21 C          61.6488   87.5135   10.5583 C.ar    1  UNL1        0.0817
     22 C          66.1695   93.4358   11.9049 C.2     1  UNL1        0.2488
     23 O          66.0729   92.5677   10.6855 O.2     1  UNL1       -0.2700
     24 N          66.5458   94.8814   11.7685 N.am    1  UNL1       -0.3022
     25 H          66.6093   95.4512   12.5689 H       1  UNL1        0.1497
     26 C          66.8256   95.4588   10.4127 C.3     1  UNL1        0.0767
     27 C          67.6221   95.0239    9.2183 C.3     1  UNL1        0.0489
     28 C          67.2211   96.2754    8.4952 C.3     1  UNL1        0.1138
     29 O          67.5008   96.8528    7.1393 O.3     1  UNL1       -0.3843
     30 C          66.4246   96.7103    9.6895 C.3     1  UNL1        0.0489
     31 H          67.0449   97.7044    7.0502 H       1  UNL1        0.2103
@<TRIPOS>BOND
     1    11    12    1
     2    12    13   ar
     3    13    14   ar
     4    14     1    1
     5     1     2   ar
     6     2     3   ar
     7     3     4   ar
     8     4     5   ar
     9     5     6   ar
    10     6     7   ar
    11     7    22    1
    12    22    23    2
    13    22    24   am
    14    26    24    1
    15    26    27    1
    16    27    28    1
    17    28    29    1
    18    28    30    1
    19     7     8   ar
    20     8     9   ar
    21    14    15   ar
    22    15    16   ar
    23    16    17   ar
    24    17    18   ar
    25    18    19    1
    26    18    20   ar
    27    20    21   ar
    28    21    12   ar
    29     9     1   ar
    30    21    15   ar
    31     8     4    1
    32    30    26    1
    33    24    25    1
    34    29    31    1
    35     9    10    1
@<TRIPOS>MOLECULE
*****
 31 35 0 0 0
SMALL
GASTEIGER

@<TRIPOS>ATOM
      1 C          63.5345   89.8808   13.2055 C.ar    1  UNL1        0.0957
      2 C          63.3196   89.6371   14.6698 C.ar    1  UNL1        0.1191
      3 N          64.0319   90.4828   15.6834 N.ar    1  UNL1       -0.2223
      4 C          64.9592   91.5723   15.2326 C.ar    1  UNL1        0.1784
      5 N          65.7931   92.5596   15.9941 N.ar    1  UNL1       -0.2236
      6 C          66.5234   93.4135   15.0004 C.ar    1  UNL1        0.1066
      7 C          66.1408   92.9540   13.6247 C.ar    1  UNL1        0.0910
      8 C          65.1741   91.8160   13.7682 C.ar    1  UNL1        0.0988
      9 N          64.4618   90.9703   12.7546 N.ar    1  UNL1       -0.3481
     10 H          64.6029   91.1303   11.7935 H       1  UNL1        0.1661
     11 C          60.5807   88.3963    9.0882 C.3     1  UNL1        0.1537
     12 N          61.4645   88.3527   10.2994 N.ar    1  UNL1       -0.2487
     13 N          61.9802   89.5398   11.0577 N.ar    1  UNL1       -0.1677
     14 C          62.8222   89.0351   12.1919 C.ar    1  UNL1        0.1193
     15 C          62.8268   87.5362   12.1345 C.ar    1  UNL1        0.0382
     16 C          63.4867   86.5008   12.9962 C.ar    1  UNL1        0.0054
     17 C          63.3074   85.0438   12.6883 C.ar    1  UNL1        0.0298
     18 C          62.4683   84.6221   11.5187 C.ar    1  UNL1        0.1416
     19 F          62.2891   83.1650   11.2108 F       1  UNL1       -0.2041
     20 C          61.8084   85.6574   10.6570 C.ar    1  UNL1        0.0484
     21 C          61.9877   87.1145   10.9649 C.ar    1  UNL1        0.0817
     22 C          66.6378   93.5311   12.3324 C.2     1  UNL1        0.2488
     23 O          67.6018   92.7541   11.4856 O.2     1  UNL1       -0.2700
     24 N          66.1708   94.8851   11.8869 N.am    1  UNL1       -0.3022
     25 H          65.5382   95.3951   12.4427 H       1  UNL1        0.1497
     26 C          66.6678   95.4622   10.5947 C.3     1  UNL1        0.0767
     27 C          67.0346   94.8997    9.2533 C.3     1  UNL1        0.0489
     28 C          67.3706   96.2782    8.7671 C.3     1  UNL1        0.1138
     29 O          67.8676   96.8553    7.4748 O.3     1  UNL1       -0.3843
     30 C          67.0038   96.8408   10.1084 C.3     1  UNL1        0.0489
     31 H          67.9615   97.8166    7.5648 H       1  UNL1        0.2103
@<TRIPOS>BOND
     1    11    12    1
     2    12    13   ar
     3    13    14   ar
     4    14     1    1
     5     1     2   ar
     6     2     3   ar
     7     3     4   ar
     8     4     5   ar
     9     5     6   ar
    10     6     7   ar
    11     7    22    1
    12    22    23    2
    13    22    24   am
    14    26    24    1
    15    26    27    1
    16    27    28    1
    17    28    29    1
    18    28    30    1
    19     7     8   ar
    20     8     9   ar
    21    14    15   ar
    22    15    16   ar
    23    16    17   ar
    24    17    18   ar
    25    18    19    1
    26    18    20   ar
    27    20    21   ar
    28    21    12   ar
    29     9     1   ar
    30    21    15   ar
    31     8     4    1
    32    30    26    1
    33    24    25    1
    34    29    31    1
    35     9    10    1
@<TRIPOS>MOLECULE
*****
 31 35 0 0 0
SMALL
GASTEIGER

@<TRIPOS>ATOM
      1 C          63.0161   90.0725   11.4007 C.ar    1  UNL1        0.0957
      2 C          62.1927   90.7198   10.3271 C.ar    1  UNL1        0.1191
      3 N          61.2759   89.8874    9.4805 N.ar    1  UNL1       -0.2223
      4 C          61.1826   88.4077    9.7075 C.ar    1  UNL1        0.1784
      5 N          60.3736   87.3381    9.0356 N.ar    1  UNL1       -0.2236
      6 C          60.6970   86.0297    9.6940 C.ar    1  UNL1        0.1066
      7 C          61.7059   86.2906   10.7728 C.ar    1  UNL1        0.0910
      8 C          62.0061   87.7603   10.7812 C.ar    1  UNL1        0.0988
      9 N          62.9228   88.5926   11.6278 N.ar    1  UNL1       -0.3481
     10 H          63.4633   88.1677   12.3325 H       1  UNL1        0.1661
     11 C          65.8190   91.8648   15.5010 C.3     1  UNL1        0.1537
     12 N          65.2212   91.7287   14.1320 N.ar    1  UNL1       -0.2487
     13 N          64.2737   90.6546   13.6865 N.ar    1  UNL1       -0.1677
     14 C          63.9329   90.9048   12.2473 C.ar    1  UNL1        0.1193
     15 C          64.6698   92.1336   11.8034 C.ar    1  UNL1        0.0382
     16 C          64.7187   92.8546   10.4889 C.ar    1  UNL1        0.0054
     17 C          65.5638   94.0848   10.3393 C.ar    1  UNL1        0.0298
     18 C          66.3600   94.5939   11.5041 C.ar    1  UNL1        0.1416
     19 F          67.2051   95.8242   11.3545 F       1  UNL1       -0.2041
     20 C          66.3112   93.8729   12.8185 C.ar    1  UNL1        0.0484
     21 C          65.4661   92.6428   12.9681 C.ar    1  UNL1        0.0817
     22 C          62.3089   85.2624   11.6835 C.2     1  UNL1        0.2488
     23 O          62.9702   85.6874   12.9610 O.2     1  UNL1       -0.2700
     24 N          62.2506   83.8091   11.3166 N.am    1  UNL1       -0.3022
     25 H          61.8165   83.5302   10.4781 H       1  UNL1        0.1497
     26 C          62.8535   82.7809   12.2272 C.3     1  UNL1        0.0767
     27 C          62.3303   81.8892   13.3140 C.3     1  UNL1        0.0489
     28 C          63.7062   81.3268   13.5150 C.3     1  UNL1        0.1138
     29 O          64.3092   80.2986   14.4256 O.3     1  UNL1       -0.3843
     30 C          64.2295   82.2185   12.4282 C.3     1  UNL1        0.0489
     31 H          65.2579   80.2189   14.2400 H       1  UNL1        0.2103
@<TRIPOS>BOND
     1    11    12    1
     2    12    13   ar
     3    13    14   ar
     4    14     1    1
     5     1     2   ar
     6     2     3   ar
     7     3     4   ar
     8     4     5   ar
     9     5     6   ar
    10     6     7   ar
    11     7    22    1
    12    22    23    2
    13    22    24   am
    14    26    24    1
    15    26    27    1
    16    27    28    1
    17    28    29    1
    18    28    30    1
    19     7     8   ar
    20     8     9   ar
    21    14    15   ar
    22    15    16   ar
    23    16    17   ar
    24    17    18   ar
    25    18    19    1
    26    18    20   ar
    27    20    21   ar
    28    21    12   ar
    29     9     1   ar
    30    21    15   ar
    31     8     4    1
    32    30    26    1
    33    24    25    1
    34    29    31    1
    35     9    10    1
@<TRIPOS>MOLECULE
*****
 31 35 0 0 0
SMALL
GASTEIGER

@<TRIPOS>ATOM
      1 C          62.1816   89.1192   10.8173 C.ar    1  UNL1        0.0957
      2 C          62.4892   90.5816   10.9452 C.ar    1  UNL1        0.1191
      3 N          63.3000   91.0789   12.1051 N.ar    1  UNL1       -0.2223
      4 C          63.8031   90.1137   13.1372 C.ar    1  UNL1        0.1784
      5 N          64.6196   90.3086   14.3803 N.ar    1  UNL1       -0.2236
      6 C          64.8166   88.9666   15.0207 C.ar    1  UNL1        0.1066
      7 C          64.1218   87.9422   14.1734 C.ar    1  UNL1        0.0910
      8 C          63.4955   88.6512   13.0093 C.ar    1  UNL1        0.0988
      9 N          62.6847   88.1539   11.8494 N.ar    1  UNL1       -0.3481
     10 H          62.4828   87.1939   11.7655 H       1  UNL1        0.1661
     11 C          58.5274   88.7852    7.0205 C.3     1  UNL1        0.1537
     12 N          59.6912   88.4684    7.9122 N.ar    1  UNL1       -0.2487
     13 N          60.1952   89.3194    9.0399 N.ar    1  UNL1       -0.1677
     14 C          61.3708   88.6219    9.6574 C.ar    1  UNL1        0.1193
     15 C          61.5934   87.3397    8.9114 C.ar    1  UNL1        0.0382
     16 C          62.6072   86.2463    9.0749 C.ar    1  UNL1        0.0054
     17 C          62.5829   85.0581    8.1598 C.ar    1  UNL1        0.0298
     18 C          61.5448   84.9632    7.0812 C.ar    1  UNL1        0.1416
     19 F          61.5205   83.7749    6.1661 F       1  UNL1       -0.2041
     20 C          60.5310   86.0566    6.9177 C.ar    1  UNL1        0.0484
     21 C          60.5553   87.2448    7.8328 C.ar    1  UNL1        0.0817
     22 C          64.0637   86.4677   14.4429 C.2     1  UNL1        0.2488
     23 O          64.6237   85.9162   15.7205 O.2     1  UNL1       -0.2700
     24 N          63.4455   85.5449   13.4349 N.am    1  UNL1       -0.3022
     25 H          63.0780   85.9069   12.5963 H       1  UNL1        0.1497
     26 C          63.3874   84.0705   13.7044 C.3     1  UNL1        0.0767
     27 C          64.1143   82.8671   13.1813 C.3     1  UNL1        0.0489
     28 C          63.3052   81.9853   14.0855 C.3     1  UNL1        0.1138
     29 O          63.2471   80.5108   14.3551 O.3     1  UNL1       -0.3843
     30 C          62.5783   83.1886   14.6087 C.3     1  UNL1        0.0489
     31 H          62.5724   80.3316   15.0286 H       1  UNL1        0.2103
@<TRIPOS>BOND
     1    11    12    1
     2    12    13   ar
     3    13    14   ar
     4    14     1    1
     5     1     2   ar
     6     2     3   ar
     7     3     4   ar
     8     4     5   ar
     9     5     6   ar
    10     6     7   ar
    11     7    22    1
    12    22    23    2
    13    22    24   am
    14    26    24    1
    15    26    27    1
    16    27    28    1
    17    28    29    1
    18    28    30    1
    19     7     8   ar
    20     8     9   ar
    21    14    15   ar
    22    15    16   ar
    23    16    17   ar
    24    17    18   ar
    25    18    19    1
    26    18    20   ar
    27    20    21   ar
    28    21    12   ar
    29     9     1   ar
    30    21    15   ar
    31     8     4    1
    32    30    26    1
    33    24    25    1
    34    29    31    1
    35     9    10    1
@<TRIPOS>MOLECULE
*****
 31 35 0 0 0
SMALL
GASTEIGER

@<TRIPOS>ATOM
      1 C          62.6466   86.6749   11.9942 C.ar    1  UNL1        0.0957
      2 C          61.8722   86.5153   10.7196 C.ar    1  UNL1        0.1191
      3 N          61.6550   87.6965    9.8209 N.ar    1  UNL1       -0.2223
      4 C          62.2124   89.0374   10.1968 C.ar    1  UNL1        0.1784
      5 N          62.1598   90.3729    9.5160 N.ar    1  UNL1       -0.2236
      6 C          62.9019   91.3580   10.3697 C.ar    1  UNL1        0.1066
      7 C          63.4130   90.6313   11.5783 C.ar    1  UNL1        0.0910
      8 C          62.9868   89.1971   11.4714 C.ar    1  UNL1        0.0988
      9 N          63.2040   88.0159   12.3702 N.ar    1  UNL1       -0.3481
     10 H          63.7123   88.1208   13.2067 H       1  UNL1        0.1661
     11 C          63.5610   83.7236   16.2760 C.3     1  UNL1        0.1537
     12 N          63.2840   84.1372   14.8610 N.ar    1  UNL1       -0.2487
     13 N          63.1308   85.5455   14.3680 N.ar    1  UNL1       -0.1677
     14 C          62.8637   85.4937   12.8929 C.ar    1  UNL1        0.1193
     15 C          62.8520   84.0534   12.4742 C.ar    1  UNL1        0.0382
     16 C          62.6383   83.3970   11.1425 C.ar    1  UNL1        0.0054
     17 C          62.6844   81.9022   11.0272 C.ar    1  UNL1        0.0298
     18 C          62.9442   81.0638   12.2436 C.ar    1  UNL1        0.1416
     19 F          62.9903   79.5689   12.1282 F       1  UNL1       -0.2041
     20 C          63.1578   81.7202   13.5753 C.ar    1  UNL1        0.0484
     21 C          63.1118   83.2150   13.6906 C.ar    1  UNL1        0.0817
     22 C          64.2103   91.2332   12.6973 C.2     1  UNL1        0.2488
     23 O          63.7051   91.1502   14.1072 O.2     1  UNL1       -0.2700
     24 N          65.5127   91.9180   12.4063 N.am    1  UNL1       -0.3022
     25 H          65.8443   91.9725   11.4809 H       1  UNL1        0.1497
     26 C          66.3099   92.5199   13.5253 C.3     1  UNL1        0.0767
     27 C          66.5785   93.9155   14.0052 C.3     1  UNL1        0.0489
     28 C          67.4374   93.3711   15.1078 C.3     1  UNL1        0.1138
     29 O          68.2347   93.9729   16.2268 O.3     1  UNL1       -0.3843
     30 C          67.1689   91.9755   14.6279 C.3     1  UNL1        0.0489
     31 H          68.6611   93.2663   16.7365 H       1  UNL1        0.2103
@<TRIPOS>BOND
     1    11    12    1
     2    12    13   ar
     3    13    14   ar
     4    14     1    1
     5     1     2   ar
     6     2     3   ar
     7     3     4   ar
     8     4     5   ar
     9     5     6   ar
    10     6     7   ar
    11     7    22    1
    12    22    23    2
    13    22    24   am
    14    26    24    1
    15    26    27    1
    16    27    28    1
    17    28    29    1
    18    28    30    1
    19     7     8   ar
    20     8     9   ar
    21    14    15   ar
    22    15    16   ar
    23    16    17   ar
    24    17    18   ar
    25    18    19    1
    26    18    20   ar
    27    20    21   ar
    28    21    12   ar
    29     9     1   ar
    30    21    15   ar
    31     8     4    1
    32    30    26    1
    33    24    25    1
    34    29    31    1
    35     9    10    1
@<TRIPOS>MOLECULE
*****
 31 35 0 0 0
SMALL
GASTEIGER

@<TRIPOS>ATOM
      1 C          64.0088   89.2990   14.3398 C.ar    1  UNL1        0.0957
      2 C          65.1112   90.2847   14.5907 C.ar    1  UNL1        0.1191
      3 N          65.3903   91.3684   13.5919 N.ar    1  UNL1       -0.2223
      4 C          64.5668   91.4664   12.3420 C.ar    1  UNL1        0.1784
      5 N          64.6085   92.4199   11.1848 N.ar    1  UNL1       -0.2236
      6 C          63.5319   92.0236   10.2185 C.ar    1  UNL1        0.1066
      7 C          62.8247   90.8251   10.7785 C.ar    1  UNL1        0.0910
      8 C          63.4644   90.4808   12.0909 C.ar    1  UNL1        0.0988
      9 N          63.1853   89.3971   13.0898 N.ar    1  UNL1       -0.3481
     10 H          62.4617   88.7502   12.9250 H       1  UNL1        0.1661
     11 C          62.6487   86.7962   18.7857 C.3     1  UNL1        0.1537
     12 N          63.1046   87.0649   17.3822 N.ar    1  UNL1       -0.2487
     13 N          63.2490   88.4153   16.7453 N.ar    1  UNL1       -0.1677
     14 C          63.7298   88.2153   15.3386 C.ar    1  UNL1        0.1193
     15 C          63.8826   86.7413   15.1061 C.ar    1  UNL1        0.0382
     16 C          64.3237   85.9547   13.9075 C.ar    1  UNL1        0.0054
     17 C          64.3784   84.4572   13.9719 C.ar    1  UNL1        0.0298
     18 C          63.9920   83.7462   15.2349 C.ar    1  UNL1        0.1416
     19 F          64.0467   82.2485   15.2993 F       1  UNL1       -0.2041
     20 C          63.5509   84.5327   16.4335 C.ar    1  UNL1        0.0484
     21 C          63.4962   86.0303   16.3691 C.ar    1  UNL1        0.0817
     22 C          61.6791   90.0985   10.1385 C.2     1  UNL1        0.2488
     23 O          60.3296   90.7485   10.0584 O.2     1  UNL1       -0.2700
     24 N          61.8829   88.7219    9.5786 N.am    1  UNL1       -0.3022
     25 H          62.7686   88.2953    9.6312 H       1  UNL1        0.1497
     26 C          60.7372   87.9954    8.9387 C.3     1  UNL1        0.0767
     27 C          60.1800   86.6056    9.0278 C.3     1  UNL1        0.0489
     28 C          59.1170   86.9679    8.0336 C.3     1  UNL1        0.1138
     29 O          57.9713   86.2414    7.3935 O.3     1  UNL1       -0.3843
     30 C          59.6741   88.3578    7.9444 C.3     1  UNL1        0.0489
     31 H          57.5062   86.8402    6.7885 H       1  UNL1        0.2103
@<TRIPOS>BOND
     1    11    12    1
     2    12    13   ar
     3    13    14   ar
     4    14     1    1
     5     1     2   ar
     6     2     3   ar
     7     3     4   ar
     8     4     5   ar
     9     5     6   ar
    10     6     7   ar
    11     7    22    1
    12    22    23    2
    13    22    24   am
    14    26    24    1
    15    26    27    1
    16    27    28    1
    17    28    29    1
    18    28    30    1
    19     7     8   ar
    20     8     9   ar
    21    14    15   ar
    22    15    16   ar
    23    16    17   ar
    24    17    18   ar
    25    18    19    1
    26    18    20   ar
    27    20    21   ar
    28    21    12   ar
    29     9     1   ar
    30    21    15   ar
    31     8     4    1
    32    30    26    1
    33    24    25    1
    34    29    31    1
    35     9    10    1
@<TRIPOS>MOLECULE
*****
 31 35 0 0 0
SMALL
GASTEIGER

@<TRIPOS>ATOM
      1 C          63.6128   86.5583   14.5257 C.ar    1  UNL1        0.0957
      2 C          63.2421   86.3576   15.9652 C.ar    1  UNL1        0.1191
      3 N          63.1457   87.5373   16.8865 N.ar    1  UNL1       -0.2223
      4 C          63.4199   88.9180   16.3683 C.ar    1  UNL1        0.1784
      5 N          63.4030   90.2618   17.0344 N.ar    1  UNL1       -0.2236
      6 C          63.7632   91.2933   16.0066 C.ar    1  UNL1        0.1066
      7 C          64.0027   90.5868   14.7052 C.ar    1  UNL1        0.0910
      8 C          63.7906   89.1189   14.9287 C.ar    1  UNL1        0.0988
      9 N          63.8870   87.9391   14.0074 N.ar    1  UNL1       -0.3481
     10 H          64.1303   88.0709   13.0626 H       1  UNL1        0.1661
     11 C          64.5215   81.7014   12.6643 C.3     1  UNL1        0.1537
     12 N          64.1269   83.1461   12.7488 N.ar    1  UNL1       -0.2487
     13 N          64.2016   84.0104   13.9725 N.ar    1  UNL1       -0.1677
     14 C          63.7092   85.3785   13.6044 C.ar    1  UNL1        0.1193
     15 C          63.3300   85.3599   12.1532 C.ar    1  UNL1        0.0382
     16 C          62.7831   86.4210   11.2450 C.ar    1  UNL1        0.0054
     17 C          62.4943   86.1023    9.8080 C.ar    1  UNL1        0.0298
     18 C          62.7525   84.7225    9.2792 C.ar    1  UNL1        0.1416
     19 F          62.4637   84.4039    7.8421 F       1  UNL1       -0.2041
     20 C          63.2994   83.6614   10.1874 C.ar    1  UNL1        0.0484
     21 C          63.5882   83.9801   11.6244 C.ar    1  UNL1        0.0817
     22 C          64.3870   91.2347   13.4080 C.2     1  UNL1        0.2488
     23 O          63.8207   90.7222   12.1170 O.2     1  UNL1       -0.2700
     24 N          65.3375   92.3951   13.4018 N.am    1  UNL1       -0.3022
     25 H          65.7092   92.7315   14.2491 H       1  UNL1        0.1497
     26 C          65.7217   93.0429   12.1046 C.3     1  UNL1        0.0767
     27 C          66.2344   94.3947   11.7051 C.3     1  UNL1        0.0489
     28 C          66.2650   93.9591   10.2701 C.3     1  UNL1        0.1138
     29 O          66.6492   94.6069    8.9729 O.3     1  UNL1       -0.3843
     30 C          65.7523   92.6072   10.6696 C.3     1  UNL1        0.0489
     31 H          66.5242   93.9759    8.2469 H       1  UNL1        0.2103
@<TRIPOS>BOND
     1    11    12    1
     2    12    13   ar
     3    13    14   ar
     4    14     1    1
     5     1     2   ar
     6     2     3   ar
     7     3     4   ar
     8     4     5   ar
     9     5     6   ar
    10     6     7   ar
    11     7    22    1
    12    22    23    2
    13    22    24   am
    14    26    24    1
    15    26    27    1
    16    27    28    1
    17    28    29    1
    18    28    30    1
    19     7     8   ar
    20     8     9   ar
    21    14    15   ar
    22    15    16   ar
    23    16    17   ar
    24    17    18   ar
    25    18    19    1
    26    18    20   ar
    27    20    21   ar
    28    21    12   ar
    29     9     1   ar
    30    21    15   ar
    31     8     4    1
    32    30    26    1
    33    24    25    1
    34    29    31    1
    35     9    10    1
@<TRIPOS>MOLECULE
*****
 31 35 0 0 0
SMALL
GASTEIGER

@<TRIPOS>ATOM
      1 C          63.7083   88.9511   14.2581 C.ar    1  UNL1        0.0957
      2 C          63.1869   88.9205   15.6642 C.ar    1  UNL1        0.1191
      3 N          63.5239   90.0320   16.6134 N.ar    1  UNL1       -0.2223
      4 C          64.3822   91.1741   16.1565 C.ar    1  UNL1        0.1784
      5 N          64.8774   92.4021   16.8613 N.ar    1  UNL1       -0.2236
      6 C          65.7048   93.1917   15.8909 C.ar    1  UNL1        0.1066
      7 C          65.7210   92.4517   14.5862 C.ar    1  UNL1        0.0910
      8 C          64.9036   91.2048   14.7504 C.ar    1  UNL1        0.0988
      9 N          64.5666   90.0933   13.8012 N.ar    1  UNL1       -0.3481
     10 H          64.9088   90.1134   12.8783 H       1  UNL1        0.1661
     11 C          61.8486   86.2989   10.0882 C.3     1  UNL1        0.1537
     12 N          62.5165   86.6205   11.3922 N.ar    1  UNL1       -0.2487
     13 N          62.6291   87.9813   12.0131 N.ar    1  UNL1       -0.1677
     14 C          63.3713   87.8395   13.3089 C.ar    1  UNL1        0.1193
     15 C          63.7175   86.3912   13.4888 C.ar    1  UNL1        0.0382
     16 C          64.4455   85.6610   14.5782 C.ar    1  UNL1        0.0054
     17 C          64.6453   84.1775   14.4830 C.ar    1  UNL1        0.0298
     18 C          64.1169   83.4240   13.2984 C.ar    1  UNL1        0.1416
     19 F          64.3167   81.9404   13.2033 F       1  UNL1       -0.2041
     20 C          63.3889   84.1542   12.2090 C.ar    1  UNL1        0.0484
     21 C          63.1892   85.6377   12.3042 C.ar    1  UNL1        0.0817
     22 C          66.4302   92.8829   13.3367 C.2     1  UNL1        0.2488
     23 O          67.8153   92.3837   13.0502 O.2     1  UNL1       -0.2700
     24 N          65.7541   93.8133   12.3737 N.am    1  UNL1       -0.3022
     25 H          64.8450   94.1409   12.5618 H       1  UNL1        0.1497
     26 C          66.4633   94.2445   11.1243 C.3     1  UNL1        0.0767
     27 C          67.1048   93.5336    9.9697 C.3     1  UNL1        0.0489
     28 C          67.4662   94.8543    9.3573 C.3     1  UNL1        0.1138
     29 O          68.1754   95.2855    8.1078 O.3     1  UNL1       -0.3843
     30 C          66.8246   95.5652   10.5118 C.3     1  UNL1        0.0489
     31 H          68.2074   96.2544    8.0722 H       1  UNL1        0.2103
@<TRIPOS>BOND
     1    11    12    1
     2    12    13   ar
     3    13    14   ar
     4    14     1    1
     5     1     2   ar
     6     2     3   ar
     7     3     4   ar
     8     4     5   ar
     9     5     6   ar
    10     6     7   ar
    11     7    22    1
    12    22    23    2
    13    22    24   am
    14    26    24    1
    15    26    27    1
    16    27    28    1
    17    28    29    1
    18    28    30    1
    19     7     8   ar
    20     8     9   ar
    21    14    15   ar
    22    15    16   ar
    23    16    17   ar
    24    17    18   ar
    25    18    19    1
    26    18    20   ar
    27    20    21   ar
    28    21    12   ar
    29     9     1   ar
    30    21    15   ar
    31     8     4    1
    32    30    26    1
    33    24    25    1
    34    29    31    1
    35     9    10    1
