@<TRIPOS>MOLECULE
*****
 46 52 0 0 0
SMALL
GASTEIGER

@<TRIPOS>ATOM
      1 C          64.5338   89.7711   14.6459 C.3     1  UNL1        0.1543
      2 O          57.6279   88.6465    6.8168 O.2     1  UNL1       -0.2261
      3 C          58.8629   88.0239    7.3975 C.2     1  UNL1        0.4055
      4 N          59.4577   86.8029    6.7609 N.am    1  UNL1       -0.2501
      5 C          60.6927   86.1804    7.3415 C.ar    1  UNL1        0.0524
      6 C          61.2876   84.9594    6.7049 C.ar    1  UNL1        0.0146
      7 C          62.5226   84.3369    7.2855 C.ar    1  UNL1        0.0013
      8 C          63.1627   84.9354    8.5029 C.ar    1  UNL1       -0.0001
      9 C          62.5679   86.1563    9.1396 C.ar    1  UNL1        0.0003
     10 C          61.3329   86.7789    8.5589 C.ar    1  UNL1        0.0274
     11 C          60.7381   87.9998    9.1956 C.3     1  UNL1        0.1605
     12 C          61.9731   87.3773    9.7763 C.3     1  UNL1        0.0661
     13 C          62.6132   87.9758   10.9937 C.3     1  UNL1        0.0989
     14 N          62.0184   89.1967   11.6304 N.am    1  UNL1       -0.2640
     15 C          62.6586   89.7952   12.8478 C.2     1  UNL1        0.3043
     16 O          62.0638   91.0161   13.4845 O.2     1  UNL1       -0.2526
     17 N          63.8936   89.1727   13.4285 N.am    1  UNL1       -0.2822
     18 C          60.7835   89.8193   11.0497 C.3     1  UNL1        0.0989
     19 C          60.1433   89.2208    9.8323 C.3     1  UNL1        0.0661
     20 O          59.5031   88.6224    8.6149 O.3     1  UNL1       -0.4374
     21 H          59.0376   86.4102    5.9618 H       1  UNL1        0.1582
     22 H          64.2840   88.3713   13.0106 H       1  UNL1        0.1514
     23 C          65.7746   90.6027   14.5087 C.2     1  UNL1        0.2439
     24 O          66.9043   90.4302   15.4803 O.2     1  UNL1       -0.2731
     25 N          65.8858   91.6068   13.3999 N.am    1  UNL1       -0.2781
     26 C          64.7561   91.7794   12.4283 C.3     1  UNL1        0.0948
     27 C          64.8673   92.7835   11.3195 C.3     1  UNL1        0.0375
     28 C          66.1081   93.6151   11.1823 C.3     1  UNL1        0.0609
     29 C          67.2378   93.4425   12.1539 C.3     1  UNL1        0.0375
     30 C          67.1267   92.4384   13.2627 C.3     1  UNL1        0.0948
     31 N          66.2192   94.6191   10.0735 N.3     1  UNL1       -0.2738
     32 C          65.3647   95.8519   10.0896 C.3     1  UNL1        0.0720
     33 C          65.4759   96.8560    8.9808 C.3     1  UNL1        0.0174
     34 C          66.4415   96.6273    7.8559 C.3     1  UNL1        0.0029
     35 C          67.2960   95.3946    7.8398 C.3     1  UNL1        0.0174
     36 C          67.1848   94.3905    8.9486 C.3     1  UNL1        0.0720
     37 C          63.9331   89.5380   16.0004 C.3     1  UNL1        0.0559
     38 C          63.4906   88.1610   16.3978 C.ar    1  UNL1       -0.0131
     39 C          62.5611   87.8248   17.5260 C.ar    1  UNL1        0.0312
     40 S          62.3959   86.3343   17.5622 S.2     1  UNL1       -0.0868
     41 C          63.2235   85.7493   16.4563 C.ar    1  UNL1        0.0292
     42 C          63.4484   84.3345   16.0116 C.ar    1  UNL1        0.0065
     43 C          64.3499   84.0487   14.8473 C.ar    1  UNL1        0.0005
     44 C          65.0264   85.1776   14.1277 C.ar    1  UNL1        0.0000
     45 C          64.8015   86.5924   14.5724 C.ar    1  UNL1        0.0002
     46 C          63.9000   86.8783   15.7367 C.ar    1  UNL1        0.0026
@<TRIPOS>BOND
     1     2     3    2
     2     3     4   am
     3     4     5    1
     4     5     6   ar
     5     6     7   ar
     6     7     8   ar
     7     8     9   ar
     8     9    10   ar
     9    10    11    1
    10    11    12    1
    11    12    13    1
    12    13    14    1
    13    14    15   am
    14    15    16    2
    15    15    17   am
    16    17     1    1
    17     1    37    1
    18    37    38    1
    19    38    39   ar
    20    39    40   ar
    21    40    41   ar
    22    41    42   ar
    23    42    43   ar
    24    43    44   ar
    25    44    45   ar
    26    45    46   ar
    27     1    23    1
    28    23    24    2
    29    23    25   am
    30    25    26    1
    31    26    27    1
    32    27    28    1
    33    28    31    1
    34    31    32    1
    35    32    33    1
    36    33    34    1
    37    34    35    1
    38    35    36    1
    39    28    29    1
    40    29    30    1
    41    14    18    1
    42    18    19    1
    43    11    20    1
    44    20     3    1
    45    10     5   ar
    46    19    11    1
    47    46    38   ar
    48    30    25    1
    49    46    41   ar
    50    36    31    1
    51     4    21    1
    52    17    22    1
@<TRIPOS>MOLECULE
*****
 46 52 0 0 0
SMALL
GASTEIGER

@<TRIPOS>ATOM
      1 C          60.1621   88.3148    8.2852 C.3     1  UNL1        0.1543
      2 O          58.4906   94.9354    0.3087 O.2     1  UNL1       -0.2261
      3 C          59.5843   94.1802    1.0041 C.2     1  UNL1        0.4055
      4 N          60.9998   94.2960    0.5215 N.am    1  UNL1       -0.2501
      5 C          62.0934   93.5408    1.2169 C.ar    1  UNL1        0.0524
      6 C          63.5090   93.6566    0.7343 C.ar    1  UNL1        0.0146
      7 C          64.6026   92.9014    1.4298 C.ar    1  UNL1        0.0013
      8 C          64.2807   92.0304    2.6078 C.ar    1  UNL1       -0.0001
      9 C          62.8652   91.9146    3.0904 C.ar    1  UNL1        0.0003
     10 C          61.7715   92.6698    2.3950 C.ar    1  UNL1        0.0274
     11 C          60.3560   92.5540    2.8776 C.3     1  UNL1        0.1605
     12 C          61.4496   91.7988    3.5730 C.3     1  UNL1        0.0661
     13 C          61.1278   90.9278    4.7510 C.3     1  UNL1        0.0989
     14 N          59.7123   90.8120    5.2336 N.am    1  UNL1       -0.2640
     15 C          59.3904   89.9410    6.4117 C.2     1  UNL1        0.3043
     16 O          57.9749   89.8252    6.8943 O.2     1  UNL1       -0.2526
     17 N          60.4840   89.1858    7.1071 N.am    1  UNL1       -0.2822
     18 C          58.6187   91.5672    4.5382 C.3     1  UNL1        0.0989
     19 C          58.9406   92.4382    3.3602 C.3     1  UNL1        0.0661
     20 O          59.2624   93.3092    2.1821 O.3     1  UNL1       -0.4374
     21 H          61.2111   94.8676   -0.2517 H       1  UNL1        0.1582
     22 H          61.4130   89.2618    6.7904 H       1  UNL1        0.1514
     23 C          59.9950   88.9247    9.6454 C.2     1  UNL1        0.2439
     24 O          58.6710   88.8445   10.3458 O.2     1  UNL1       -0.2731
     25 N          61.1519   89.6148   10.3052 N.am    1  UNL1       -0.2781
     26 C          62.4759   89.6951    9.6048 C.3     1  UNL1        0.0948
     27 C          63.6328   90.3853   10.2647 C.3     1  UNL1        0.0375
     28 C          63.4656   90.9951   11.6248 C.3     1  UNL1        0.0609
     29 C          62.1416   90.9148   12.3252 C.3     1  UNL1        0.0375
     30 C          60.9847   90.2247   11.6654 C.3     1  UNL1        0.0948
     31 N          64.6225   91.6852   12.2846 N.3     1  UNL1       -0.2738
     32 C          65.0609   91.2682   13.6571 C.3     1  UNL1        0.0720
     33 C          66.2179   91.9583   14.3169 C.3     1  UNL1        0.0174
     34 C          66.9363   93.0655   13.6042 C.3     1  UNL1        0.0029
     35 C          66.4978   93.4825   12.2317 C.3     1  UNL1        0.0174
     36 C          65.3410   92.7924   11.5719 C.3     1  UNL1        0.0720
     37 C          60.0073   86.8340    8.1030 C.3     1  UNL1        0.0559
     38 C          61.1981   85.9326    8.2431 C.ar    1  UNL1       -0.0131
     39 C          61.9584   85.2949    7.1183 C.ar    1  UNL1        0.0312
     40 S          63.0678   84.4788    7.7127 S.2     1  UNL1       -0.0868
     41 C          62.9931   84.6121    9.2049 C.ar    1  UNL1        0.0292
     42 C          63.8280   84.0315   10.3075 C.ar    1  UNL1        0.0065
     43 C          63.5074   84.3493   11.7379 C.ar    1  UNL1        0.0005
     44 C          62.3518   85.2478   12.0657 C.ar    1  UNL1        0.0000
     45 C          61.5169   85.8285   10.9631 C.ar    1  UNL1        0.0002
     46 C          61.8376   85.5106    9.5327 C.ar    1  UNL1        0.0026
@<TRIPOS>BOND
     1     2     3    2
     2     3     4   am
     3     4     5    1
     4     5     6   ar
     5     6     7   ar
     6     7     8   ar
     7     8     9   ar
     8     9    10   ar
     9    10    11    1
    10    11    12    1
    11    12    13    1
    12    13    14    1
    13    14    15   am
    14    15    16    2
    15    15    17   am
    16    17     1    1
    17     1    37    1
    18    37    38    1
    19    38    39   ar
    20    39    40   ar
    21    40    41   ar
    22    41    42   ar
    23    42    43   ar
    24    43    44   ar
    25    44    45   ar
    26    45    46   ar
    27     1    23    1
    28    23    24    2
    29    23    25   am
    30    25    26    1
    31    26    27    1
    32    27    28    1
    33    28    31    1
    34    31    32    1
    35    32    33    1
    36    33    34    1
    37    34    35    1
    38    35    36    1
    39    28    29    1
    40    29    30    1
    41    14    18    1
    42    18    19    1
    43    11    20    1
    44    20     3    1
    45    10     5   ar
    46    19    11    1
    47    46    38   ar
    48    30    25    1
    49    46    41   ar
    50    36    31    1
    51     4    21    1
    52    17    22    1
@<TRIPOS>MOLECULE
*****
 46 52 0 0 0
SMALL
GASTEIGER

@<TRIPOS>ATOM
      1 C          62.2102   86.0431   11.5398 C.3     1  UNL1        0.1543
      2 O          67.4308   93.6773   16.5113 O.2     1  UNL1       -0.2261
      3 C          66.7950   93.3497   15.1927 C.2     1  UNL1        0.4055
      4 N          66.8219   94.3524   14.0774 N.am    1  UNL1       -0.2501
      5 C          66.1861   94.0247   12.7590 C.ar    1  UNL1        0.0524
      6 C          66.2129   95.0274   11.6436 C.ar    1  UNL1        0.0146
      7 C          65.5771   94.6998   10.3251 C.ar    1  UNL1        0.0013
      8 C          64.9145   93.3696   10.1219 C.ar    1  UNL1       -0.0001
      9 C          64.8876   92.3669   11.2372 C.ar    1  UNL1        0.0003
     10 C          65.5234   92.6945   12.5558 C.ar    1  UNL1        0.0274
     11 C          65.4966   91.6918   13.6710 C.3     1  UNL1        0.1605
     12 C          64.8608   91.3642   12.3526 C.3     1  UNL1        0.0661
     13 C          64.1982   90.0339   12.1494 C.3     1  UNL1        0.0989
     14 N          64.1713   89.0313   13.2647 N.am    1  UNL1       -0.2640
     15 C          63.5087   87.7010   13.0615 C.2     1  UNL1        0.3043
     16 O          63.4818   86.6983   14.1768 O.2     1  UNL1       -0.2526
     17 N          62.8729   87.3734   11.7430 N.am    1  UNL1       -0.2822
     18 C          64.8071   89.3589   14.5831 C.3     1  UNL1        0.0989
     19 C          65.4697   90.6892   14.7863 C.3     1  UNL1        0.0661
     20 O          66.1324   92.0194   14.9895 O.3     1  UNL1       -0.4374
     21 H          67.2568   95.2255   14.2108 H       1  UNL1        0.1582
     22 H          62.8905   88.0315   11.0110 H       1  UNL1        0.1514
     23 C          61.7371   85.6417   10.1741 C.2     1  UNL1        0.2439
     24 O          61.8842   84.2206    9.7171 O.2     1  UNL1       -0.2731
     25 N          61.1169   86.6614    9.2655 N.am    1  UNL1       -0.2781
     26 C          60.9697   88.0824    9.7226 C.3     1  UNL1        0.0948
     27 C          60.3495   89.1021    8.8139 C.3     1  UNL1        0.0375
     28 C          59.8764   88.7007    7.4482 C.3     1  UNL1        0.0609
     29 C          60.0235   87.2796    6.9912 C.3     1  UNL1        0.0375
     30 C          60.6437   86.2599    7.8998 C.3     1  UNL1        0.0948
     31 N          59.2562   89.7203    6.5397 N.3     1  UNL1       -0.2738
     32 C          60.1278   90.6665    5.7682 C.3     1  UNL1        0.0720
     33 C          59.5075   91.6861    4.8596 C.3     1  UNL1        0.0174
     34 C          58.0156   91.7597    4.7224 C.3     1  UNL1        0.0029
     35 C          57.1440   90.8135    5.4938 C.3     1  UNL1        0.0174
     36 C          57.7642   89.7939    6.4024 C.3     1  UNL1        0.0720
     37 C          62.0207   85.1143   12.7022 C.3     1  UNL1        0.0559
     38 C          62.8353   83.8585   12.7994 C.ar    1  UNL1       -0.0131
     39 C          64.2860   83.7189   12.4443 C.ar    1  UNL1        0.0312
     40 S          64.6895   82.2959   12.6942 S.2     1  UNL1       -0.0868
     41 C          63.4883   81.5561   13.2038 C.ar    1  UNL1        0.0292
     42 C          63.2899   80.1279   13.6170 C.ar    1  UNL1        0.0065
     43 C          61.9455   79.6654   14.0953 C.ar    1  UNL1        0.0005
     44 C          60.7996   80.6311   14.1603 C.ar    1  UNL1        0.0000
     45 C          60.9980   82.0594   13.7471 C.ar    1  UNL1        0.0002
     46 C          62.3424   82.5219   13.2688 C.ar    1  UNL1        0.0026
@<TRIPOS>BOND
     1     2     3    2
     2     3     4   am
     3     4     5    1
     4     5     6   ar
     5     6     7   ar
     6     7     8   ar
     7     8     9   ar
     8     9    10   ar
     9    10    11    1
    10    11    12    1
    11    12    13    1
    12    13    14    1
    13    14    15   am
    14    15    16    2
    15    15    17   am
    16    17     1    1
    17     1    37    1
    18    37    38    1
    19    38    39   ar
    20    39    40   ar
    21    40    41   ar
    22    41    42   ar
    23    42    43   ar
    24    43    44   ar
    25    44    45   ar
    26    45    46   ar
    27     1    23    1
    28    23    24    2
    29    23    25   am
    30    25    26    1
    31    26    27    1
    32    27    28    1
    33    28    31    1
    34    31    32    1
    35    32    33    1
    36    33    34    1
    37    34    35    1
    38    35    36    1
    39    28    29    1
    40    29    30    1
    41    14    18    1
    42    18    19    1
    43    11    20    1
    44    20     3    1
    45    10     5   ar
    46    19    11    1
    47    46    38   ar
    48    30    25    1
    49    46    41   ar
    50    36    31    1
    51     4    21    1
    52    17    22    1
