@<TRIPOS>MOLECULE
*****
 34 37 0 0 0
SMALL
GASTEIGER

@<TRIPOS>ATOM
      1 C          62.7246   87.0868   11.8013 C.3     1  UNL1        0.1329
      2 C          63.3123   88.1763   12.6484 C.3     1  UNL1        0.0785
      3 C          63.2792   89.5979   12.1708 C.3     1  UNL1        0.0179
      4 C          63.8669   90.6874   13.0179 C.3     1  UNL1        0.0029
      5 C          64.4876   90.3553   14.3426 C.3     1  UNL1        0.0171
      6 C          64.5207   88.9338   14.8200 C.3     1  UNL1        0.0686
      7 N          63.9330   87.8443   13.9730 N.3     1  UNL1       -0.2969
      8 H          63.2089   87.3941   14.5329 H       1  UNL1        0.1233
      9 C          62.7003   82.8672   14.9755 C.3     1  UNL1        0.0524
     10 C          62.7261   83.7288   13.7478 C.ar    1  UNL1        0.0640
     11 N          62.6951   85.2282   13.7222 N.ar    1  UNL1       -0.2456
     12 C          62.7373   85.6683   12.2889 C.ar    1  UNL1        0.1067
     13 S          62.7943   84.4408   11.4286 S.2     1  UNL1       -0.0714
     14 C          62.7874   83.2421   12.3303 C.ar    1  UNL1        0.0512
     15 C          62.8338   81.8084   11.8915 C.3     1  UNL1        0.1713
     16 O          63.3644   81.4565   10.5334 O.3     1  UNL1       -0.3767
     17 H          62.7740   81.8157    9.8526 H       1  UNL1        0.2109
     18 N          62.1242   87.4157   10.4667 N.am    1  UNL1       -0.2946
     19 C          60.7106   87.9103   10.3815 C.2     1  UNL1        0.2618
     20 O          59.8974   88.0759   11.6310 O.2     1  UNL1       -0.2686
     21 H          62.6580   87.3070    9.6466 H       1  UNL1        0.1501
     22 C          60.1103   88.2392    9.0468 C.ar    1  UNL1        0.1107
     23 C          59.0942   87.4174    8.3104 C.ar    1  UNL1        0.0231
     24 C          58.7765   88.1180    7.0227 C.ar    1  UNL1        0.0186
     25 C          59.5962   89.3728    6.9632 C.ar    1  UNL1        0.0567
     26 N          60.4205   89.4477    8.2142 N.ar    1  UNL1       -0.3496
     27 H          61.0540   90.1642    8.4478 H       1  UNL1        0.1661
     28 C          59.5924   90.3765    5.8485 C.ar    1  UNL1        0.0156
     29 C          58.3031   91.0053    5.4098 C.ar    1  UNL1        0.0023
     30 C          58.2993   92.0089    4.2951 C.ar    1  UNL1        0.0114
     31 C          59.5847   92.3838    3.6191 C.ar    1  UNL1        0.0577
     32 CL         59.5809   93.3875    2.5043 Cl      1  UNL1       -0.0822
     33 C          60.8740   91.7551    4.0577 C.ar    1  UNL1        0.0114
     34 C          60.8778   90.7514    5.1724 C.ar    1  UNL1        0.0023
@<TRIPOS>BOND
     1     9    10    1
     2    10    11   ar
     3    11    12   ar
     4    12     1    1
     5     1    18    1
     6    18    19   am
     7    19    20    2
     8    19    22    1
     9    22    23   ar
    10    23    24   ar
    11    24    25   ar
    12    25    28    1
    13    28    29   ar
    14    29    30   ar
    15    30    31   ar
    16    31    32    1
    17    31    33   ar
    18    33    34   ar
    19    25    26   ar
    20     1     2    1
    21     2     3    1
    22     3     4    1
    23     4     5    1
    24     5     6    1
    25     6     7    1
    26    12    13   ar
    27    13    14   ar
    28    14    15    1
    29    15    16    1
    30    14    10   ar
    31    26    22   ar
    32     7     2    1
    33    34    28   ar
    34    18    21    1
    35    26    27    1
    36     7     8    1
    37    16    17    1
@<TRIPOS>MOLECULE
*****
 34 37 0 0 0
SMALL
GASTEIGER

@<TRIPOS>ATOM
      1 C          62.3085   86.8103   10.9582 C.3     1  UNL1        0.1329
      2 C          61.2504   86.8196    9.8949 C.3     1  UNL1        0.0785
      3 C          61.4056   85.9607    8.6750 C.3     1  UNL1        0.0179
      4 C          60.3475   85.9700    7.6118 C.3     1  UNL1        0.0029
      5 C          59.1344   86.8382    7.7685 C.3     1  UNL1        0.0171
      6 C          58.9792   87.6971    8.9884 C.3     1  UNL1        0.0686
      7 N          60.0373   87.6878   10.0517 N.3     1  UNL1       -0.2969
      8 H          59.5813   87.4028   10.9184 H       1  UNL1        0.1233
      9 C          62.6790   83.7885   15.2723 C.3     1  UNL1        0.0524
     10 C          62.6289   84.2295   13.8395 C.ar    1  UNL1        0.0640
     11 N          62.4487   85.6381   13.3563 N.ar    1  UNL1       -0.2456
     12 C          62.4586   85.6185   11.8565 C.ar    1  UNL1        0.1067
     13 S          62.6450   84.1978   11.4127 S.2     1  UNL1       -0.0714
     14 C          62.7502   83.3393   12.6383 C.ar    1  UNL1        0.0512
     15 C          62.9430   81.8519   12.6590 C.3     1  UNL1        0.1713
     16 O          61.8646   80.9634   13.2045 O.3     1  UNL1       -0.3767
     17 H          61.7610   81.1269   14.1550 H       1  UNL1        0.2109
     18 N          63.2165   87.9928   11.1230 N.am    1  UNL1       -0.2946
     19 C          62.7160   89.2340   11.8005 C.2     1  UNL1        0.2618
     20 O          61.3075   89.2928   12.3130 O.2     1  UNL1       -0.2686
     21 H          64.1409   87.9543   10.7866 H       1  UNL1        0.1501
     22 C          63.6239   90.4166   11.9653 C.ar    1  UNL1        0.1107
     23 C          64.1754   90.9308   13.2621 C.ar    1  UNL1        0.0231
     24 C          65.0322   92.1245   12.9606 C.ar    1  UNL1        0.0186
     25 C          65.0103   92.3481   11.4776 C.ar    1  UNL1        0.0567
     26 N          64.1399   91.2925   10.8625 N.ar    1  UNL1       -0.3496
     27 H          63.9421   91.1923    9.9033 H       1  UNL1        0.1661
     28 C          65.7320   93.4363   10.7392 C.ar    1  UNL1        0.0156
     29 C          66.8487   93.0915    9.7989 C.ar    1  UNL1        0.0023
     30 C          67.5703   94.1796    9.0606 C.ar    1  UNL1        0.0114
     31 C          67.1753   95.6125    9.2625 C.ar    1  UNL1        0.0577
     32 CL         67.8970   96.7006    8.5241 Cl      1  UNL1       -0.0822
     33 C          66.0586   95.9573   10.2027 C.ar    1  UNL1        0.0114
     34 C          65.3369   94.8691   10.9411 C.ar    1  UNL1        0.0023
@<TRIPOS>BOND
     1     9    10    1
     2    10    11   ar
     3    11    12   ar
     4    12     1    1
     5     1    18    1
     6    18    19   am
     7    19    20    2
     8    19    22    1
     9    22    23   ar
    10    23    24   ar
    11    24    25   ar
    12    25    28    1
    13    28    29   ar
    14    29    30   ar
    15    30    31   ar
    16    31    32    1
    17    31    33   ar
    18    33    34   ar
    19    25    26   ar
    20     1     2    1
    21     2     3    1
    22     3     4    1
    23     4     5    1
    24     5     6    1
    25     6     7    1
    26    12    13   ar
    27    13    14   ar
    28    14    15    1
    29    15    16    1
    30    14    10   ar
    31    26    22   ar
    32     7     2    1
    33    34    28   ar
    34    18    21    1
    35    26    27    1
    36     7     8    1
    37    16    17    1
@<TRIPOS>MOLECULE
*****
 34 37 0 0 0
SMALL
GASTEIGER

@<TRIPOS>ATOM
      1 C          59.7792   93.3734    1.1565 C.3     1  UNL1        0.1329
      2 C          58.7835   93.8615    0.1463 C.3     1  UNL1        0.0785
      3 C          57.9447   92.8786   -0.6154 C.3     1  UNL1        0.0179
      4 C          56.9490   93.3667   -1.6256 C.3     1  UNL1        0.0029
      5 C          56.7922   94.8378   -1.8739 C.3     1  UNL1        0.0171
      6 C          57.6311   95.8206   -1.1122 C.3     1  UNL1        0.0686
      7 N          58.6267   95.3325   -0.1021 N.3     1  UNL1       -0.2969
      8 H          58.3728   95.7564    0.7903 H       1  UNL1        0.1233
      9 C          63.8769   96.6933    0.8958 C.3     1  UNL1        0.0524
     10 C          63.0610   95.4422    1.0345 C.ar    1  UNL1        0.0640
     11 N          61.5653   95.3528    0.9645 N.ar    1  UNL1       -0.2456
     12 C          61.1775   93.9163    1.1543 C.ar    1  UNL1        0.1067
     13 S          62.4335   93.1179    1.3415 S.2     1  UNL1       -0.0714
     14 C          63.5976   94.0610    1.2675 C.ar    1  UNL1        0.0512
     15 C          65.0443   93.6883    1.4026 C.3     1  UNL1        0.1713
     16 O          65.6639   92.7241    0.4350 O.3     1  UNL1       -0.3767
     17 H          65.2598   91.8494    0.5467 H       1  UNL1        0.2109
     18 N          59.3765   92.3424    2.1688 N.am    1  UNL1       -0.2946
     19 C          59.3681   92.6878    3.6285 C.2     1  UNL1        0.2618
     20 O          59.7622   94.0642    4.0759 O.2     1  UNL1       -0.2686
     21 H          59.1178   91.4390    1.8753 H       1  UNL1        0.1501
     22 C          58.9654   91.6568    4.6409 C.ar    1  UNL1        0.1107
     23 C          57.5600   91.2628    4.9871 C.ar    1  UNL1        0.0231
     24 C          57.6235   90.2013    6.0450 C.ar    1  UNL1        0.0186
     25 C          59.0680   89.9391    6.3525 C.ar    1  UNL1        0.0567
     26 N          59.8974   90.8387    5.4848 N.ar    1  UNL1       -0.3496
     27 H          60.8807   90.8842    5.4714 H       1  UNL1        0.1661
     28 C          59.5914   88.9509    7.3524 C.ar    1  UNL1        0.0156
     29 C          59.3796   87.4818    7.1364 C.ar    1  UNL1        0.0023
     30 C          59.9029   86.4936    8.1362 C.ar    1  UNL1        0.0114
     31 C          60.6381   86.9746    9.3520 C.ar    1  UNL1        0.0577
     32 CL         61.1615   85.9864   10.3518 Cl      1  UNL1       -0.0822
     33 C          60.8499   88.4438    9.5679 C.ar    1  UNL1        0.0114
     34 C          60.3266   89.4319    8.5681 C.ar    1  UNL1        0.0023
@<TRIPOS>BOND
     1     9    10    1
     2    10    11   ar
     3    11    12   ar
     4    12     1    1
     5     1    18    1
     6    18    19   am
     7    19    20    2
     8    19    22    1
     9    22    23   ar
    10    23    24   ar
    11    24    25   ar
    12    25    28    1
    13    28    29   ar
    14    29    30   ar
    15    30    31   ar
    16    31    32    1
    17    31    33   ar
    18    33    34   ar
    19    25    26   ar
    20     1     2    1
    21     2     3    1
    22     3     4    1
    23     4     5    1
    24     5     6    1
    25     6     7    1
    26    12    13   ar
    27    13    14   ar
    28    14    15    1
    29    15    16    1
    30    14    10   ar
    31    26    22   ar
    32     7     2    1
    33    34    28   ar
    34    18    21    1
    35    26    27    1
    36     7     8    1
    37    16    17    1
@<TRIPOS>MOLECULE
*****
 34 37 0 0 0
SMALL
GASTEIGER

@<TRIPOS>ATOM
      1 C          62.2991   86.3033   10.9525 C.3     1  UNL1        0.1329
      2 C          61.3083   86.3481    9.8272 C.3     1  UNL1        0.0785
      3 C          61.6317   85.6937    8.5168 C.3     1  UNL1        0.0179
      4 C          60.6409   85.7385    7.3915 C.3     1  UNL1        0.0029
      5 C          59.3267   86.4377    7.5767 C.3     1  UNL1        0.0171
      6 C          59.0033   87.0921    8.8871 C.3     1  UNL1        0.0686
      7 N          59.9942   87.0473   10.0124 N.3     1  UNL1       -0.2969
      8 H          59.5274   86.5937   10.7978 H       1  UNL1        0.1233
      9 C          62.5970   81.2203   12.3505 C.3     1  UNL1        0.0524
     10 C          62.5854   82.7189   12.4138 C.ar    1  UNL1        0.0640
     11 N          62.3859   83.6488   11.2538 N.ar    1  UNL1       -0.2456
     12 C          62.4484   85.0553   11.7711 C.ar    1  UNL1        0.1067
     13 S          62.6865   84.9947   13.2509 S.2     1  UNL1       -0.0714
     14 C          62.7711   83.5507   13.6481 C.ar    1  UNL1        0.0512
     15 C          63.0011   83.0300   15.0359 C.3     1  UNL1        0.1713
     16 O          64.3642   83.1220   15.6551 O.3     1  UNL1       -0.3767
     17 H          64.9808   82.5558   15.1651 H       1  UNL1        0.2109
     18 N          63.1406   87.5066   11.2592 N.am    1  UNL1       -0.2946
     19 C          62.5054   88.7409   11.8276 C.2     1  UNL1        0.2618
     20 O          61.0288   88.7720   12.0892 O.2     1  UNL1       -0.2686
     21 H          64.1098   87.4862   11.0875 H       1  UNL1        0.1501
     22 C          63.3469   89.9441   12.1343 C.ar    1  UNL1        0.1107
     23 C          63.2415   91.2859   11.4720 C.ar    1  UNL1        0.0231
     24 C          64.2710   92.1879   12.0855 C.ar    1  UNL1        0.0186
     25 C          65.0128   91.4037   13.1270 C.ar    1  UNL1        0.0567
     26 N          64.4417   90.0170   13.1571 N.ar    1  UNL1       -0.3496
     27 H          64.7340   89.2834   13.7450 H       1  UNL1        0.1661
     28 C          66.1296   91.9161   13.9873 C.ar    1  UNL1        0.0156
     29 C          65.8493   92.3673   15.3901 C.ar    1  UNL1        0.0023
     30 C          66.9661   92.8798   16.2504 C.ar    1  UNL1        0.0114
     31 C          68.3632   92.9410   15.7079 C.ar    1  UNL1        0.0577
     32 CL         69.4801   93.4535   16.5682 Cl      1  UNL1       -0.0822
     33 C          68.6435   92.4898   14.3051 C.ar    1  UNL1        0.0114
     34 C          67.5267   91.9774   13.4448 C.ar    1  UNL1        0.0023
@<TRIPOS>BOND
     1     9    10    1
     2    10    11   ar
     3    11    12   ar
     4    12     1    1
     5     1    18    1
     6    18    19   am
     7    19    20    2
     8    19    22    1
     9    22    23   ar
    10    23    24   ar
    11    24    25   ar
    12    25    28    1
    13    28    29   ar
    14    29    30   ar
    15    30    31   ar
    16    31    32    1
    17    31    33   ar
    18    33    34   ar
    19    25    26   ar
    20     1     2    1
    21     2     3    1
    22     3     4    1
    23     4     5    1
    24     5     6    1
    25     6     7    1
    26    12    13   ar
    27    13    14   ar
    28    14    15    1
    29    15    16    1
    30    14    10   ar
    31    26    22   ar
    32     7     2    1
    33    34    28   ar
    34    18    21    1
    35    26    27    1
    36     7     8    1
    37    16    17    1
@<TRIPOS>MOLECULE
*****
 34 37 0 0 0
SMALL
GASTEIGER

@<TRIPOS>ATOM
      1 C          62.6922   85.8738   11.4057 C.3     1  UNL1        0.1329
      2 C          62.5569   84.7454   12.3847 C.3     1  UNL1        0.0785
      3 C          62.5529   83.3266   11.8979 C.3     1  UNL1        0.0179
      4 C          62.4177   82.1982   12.8769 C.3     1  UNL1        0.0029
      5 C          62.2864   82.4886   14.3427 C.3     1  UNL1        0.0171
      6 C          62.2903   83.9074   14.8295 C.3     1  UNL1        0.0686
      7 N          62.4256   85.0358   13.8505 N.3     1  UNL1       -0.2969
      8 H          63.2556   85.5630   14.1217 H       1  UNL1        0.1233
      9 C          62.1152   84.5998    6.3141 C.3     1  UNL1        0.0524
     10 C          61.8583   85.1547    7.6838 C.ar    1  UNL1        0.0640
     11 N          62.7761   85.0466    8.8653 N.ar    1  UNL1       -0.2456
     12 C          62.1235   85.7403   10.0241 C.ar    1  UNL1        0.1067
     13 S          60.8024   86.2770    9.5588 S.2     1  UNL1       -0.0714
     14 C          60.6384   85.9151    8.1124 C.ar    1  UNL1        0.0512
     15 C          59.4613   86.2541    7.2466 C.3     1  UNL1        0.1713
     16 O          58.1492   86.6202    7.8745 O.3     1  UNL1       -0.3767
     17 H          57.7895   85.8512    8.3436 H       1  UNL1        0.2109
     18 N          63.3961   87.1356   11.8083 N.am    1  UNL1       -0.2946
     19 C          62.6237   88.4141   11.9463 C.2     1  UNL1        0.2618
     20 O          61.1473   88.4306   11.6816 O.2     1  UNL1       -0.2686
     21 H          64.3651   87.1248   11.9820 H       1  UNL1        0.1501
     22 C          63.3276   89.6760   12.3488 C.ar    1  UNL1        0.1107
     23 C          62.9501   91.0671   11.9336 C.ar    1  UNL1        0.0231
     24 C          63.9218   92.0192   12.5655 C.ar    1  UNL1        0.0186
     25 C          64.8999   91.2165   13.3712 C.ar    1  UNL1        0.0567
     26 N          64.5326   89.7684   13.2373 N.ar    1  UNL1       -0.3496
     27 H          65.0004   89.0114   13.6586 H       1  UNL1        0.1661
     28 C          66.0443   91.7656   14.1705 C.ar    1  UNL1        0.0156
     29 C          67.4204   91.8125   13.5755 C.ar    1  UNL1        0.0023
     30 C          68.5648   92.3616   14.3748 C.ar    1  UNL1        0.0114
     31 C          68.3330   92.8638   15.7691 C.ar    1  UNL1        0.0577
     32 CL         69.4775   93.4129   16.5684 Cl      1  UNL1       -0.0822
     33 C          66.9569   92.8170   16.3641 C.ar    1  UNL1        0.0114
     34 C          65.8126   92.2679   15.5648 C.ar    1  UNL1        0.0023
@<TRIPOS>BOND
     1     9    10    1
     2    10    11   ar
     3    11    12   ar
     4    12     1    1
     5     1    18    1
     6    18    19   am
     7    19    20    2
     8    19    22    1
     9    22    23   ar
    10    23    24   ar
    11    24    25   ar
    12    25    28    1
    13    28    29   ar
    14    29    30   ar
    15    30    31   ar
    16    31    32    1
    17    31    33   ar
    18    33    34   ar
    19    25    26   ar
    20     1     2    1
    21     2     3    1
    22     3     4    1
    23     4     5    1
    24     5     6    1
    25     6     7    1
    26    12    13   ar
    27    13    14   ar
    28    14    15    1
    29    15    16    1
    30    14    10   ar
    31    26    22   ar
    32     7     2    1
    33    34    28   ar
    34    18    21    1
    35    26    27    1
    36     7     8    1
    37    16    17    1
@<TRIPOS>MOLECULE
*****
 34 37 0 0 0
SMALL
GASTEIGER

@<TRIPOS>ATOM
      1 C          62.7379   85.8122   11.4833 C.3     1  UNL1        0.1329
      2 C          62.5511   84.6755   12.4441 C.3     1  UNL1        0.0785
      3 C          62.5239   83.2634   11.9389 C.3     1  UNL1        0.0179
      4 C          62.3371   82.1267   12.8997 C.3     1  UNL1        0.0029
      5 C          62.1777   82.4022   14.3656 C.3     1  UNL1        0.0171
      6 C          62.2049   83.8143   14.8707 C.3     1  UNL1        0.0686
      7 N          62.3917   84.9509   13.9099 N.3     1  UNL1       -0.2969
      8 H          63.2277   85.4538   14.2077 H       1  UNL1        0.1233
      9 C          62.1460   84.6996    6.3557 C.3     1  UNL1        0.0524
     10 C          61.8948   85.2142    7.7421 C.ar    1  UNL1        0.0640
     11 N          62.8129   85.0628    8.9186 N.ar    1  UNL1       -0.2456
     12 C          62.1669   85.7256   10.0990 C.ar    1  UNL1        0.1067
     13 S          60.8496   86.2868    9.6519 S.2     1  UNL1       -0.0714
     14 C          60.6814   85.9707    8.1953 C.ar    1  UNL1        0.0512
     15 C          59.5062   86.3454    7.3417 C.3     1  UNL1        0.1713
     16 O          58.1819   86.6458    7.9789 O.3     1  UNL1       -0.3767
     17 H          57.8322   85.8412    8.3925 H       1  UNL1        0.2109
     18 N          63.4957   87.0354   11.9069 N.am    1  UNL1       -0.2946
     19 C          62.7688   88.3288   12.1282 C.2     1  UNL1        0.2618
     20 O          61.2842   88.3988   11.9260 O.2     1  UNL1       -0.2686
     21 H          64.4701   86.9894   12.0396 H       1  UNL1        0.1501
     22 C          63.5266   89.5520   12.5518 C.ar    1  UNL1        0.1107
     23 C          63.9927   89.8626   13.9434 C.ar    1  UNL1        0.0231
     24 C          64.7055   91.1820   13.9098 C.ar    1  UNL1        0.0186
     25 C          64.6800   91.6868   12.4975 C.ar    1  UNL1        0.0567
     26 N          63.9514   90.6794   11.6583 N.ar    1  UNL1       -0.3496
     27 H          63.7818   90.7464   10.6908 H       1  UNL1        0.1661
     28 C          65.2780   92.9732   12.0100 C.ar    1  UNL1        0.0156
     29 C          66.0026   93.8733   12.9664 C.ar    1  UNL1        0.0023
     30 C          66.6006   95.1597   12.4789 C.ar    1  UNL1        0.0114
     31 C          66.4741   95.5459   11.0350 C.ar    1  UNL1        0.0577
     32 CL         67.0722   96.8323   10.5476 Cl      1  UNL1       -0.0822
     33 C          65.7495   94.6457   10.0786 C.ar    1  UNL1        0.0114
     34 C          65.1515   93.3594   10.5661 C.ar    1  UNL1        0.0023
@<TRIPOS>BOND
     1     9    10    1
     2    10    11   ar
     3    11    12   ar
     4    12     1    1
     5     1    18    1
     6    18    19   am
     7    19    20    2
     8    19    22    1
     9    22    23   ar
    10    23    24   ar
    11    24    25   ar
    12    25    28    1
    13    28    29   ar
    14    29    30   ar
    15    30    31   ar
    16    31    32    1
    17    31    33   ar
    18    33    34   ar
    19    25    26   ar
    20     1     2    1
    21     2     3    1
    22     3     4    1
    23     4     5    1
    24     5     6    1
    25     6     7    1
    26    12    13   ar
    27    13    14   ar
    28    14    15    1
    29    15    16    1
    30    14    10   ar
    31    26    22   ar
    32     7     2    1
    33    34    28   ar
    34    18    21    1
    35    26    27    1
    36     7     8    1
    37    16    17    1
@<TRIPOS>MOLECULE
*****
 34 37 0 0 0
SMALL
GASTEIGER

@<TRIPOS>ATOM
      1 C          65.2856   91.9641   12.4895 C.3     1  UNL1        0.1329
      2 C          65.4225   92.1002   13.9770 C.3     1  UNL1        0.0785
      3 C          66.6796   92.6690   14.5655 C.3     1  UNL1        0.0179
      4 C          66.8165   92.8051   16.0531 C.3     1  UNL1        0.0029
      5 C          65.6963   92.3723   16.9520 C.3     1  UNL1        0.0171
      6 C          64.4393   91.8035   16.3635 C.3     1  UNL1        0.0686
      7 N          64.3025   91.6674   14.8760 N.3     1  UNL1       -0.2969
      8 H          63.4815   92.2089   14.6051 H       1  UNL1        0.1233
      9 C          66.8745   96.5338   10.3743 C.3     1  UNL1        0.0524
     10 C          66.6644   95.0674   10.6095 C.ar    1  UNL1        0.0640
     11 N          65.8824   94.4581   11.7353 N.ar    1  UNL1       -0.2456
     12 C          65.9341   92.9669   11.5818 C.ar    1  UNL1        0.1067
     13 S          66.7481   92.6545   10.3612 S.2     1  UNL1       -0.0714
     14 C          67.1994   93.9527    9.7603 C.ar    1  UNL1        0.0512
     15 C          68.0385   94.1087    8.5268 C.3     1  UNL1        0.1713
     16 O          68.6562   92.9033    7.8824 O.3     1  UNL1       -0.3767
     17 H          69.3165   92.5196    8.4804 H       1  UNL1        0.2109
     18 N          64.5003   90.8252   11.9096 N.am    1  UNL1       -0.2946
     19 C          63.0019   90.8365   11.9768 C.2     1  UNL1        0.2618
     20 O          62.2887   91.9866   12.6237 O.2     1  UNL1       -0.2686
     21 H          64.9684   90.0704   11.4850 H       1  UNL1        0.1501
     22 C          62.2166   89.6976   11.3969 C.ar    1  UNL1        0.1107
     23 C          60.9032   89.1824   11.9067 C.ar    1  UNL1        0.0231
     24 C          60.4817   88.0404   11.0303 C.ar    1  UNL1        0.0186
     25 C          61.5344   87.8497    9.9790 C.ar    1  UNL1        0.0567
     26 N          62.6066   88.8740   10.2055 N.ar    1  UNL1       -0.3496
     27 H          63.4231   88.9860    9.6669 H       1  UNL1        0.1661
     28 C          61.5179   86.8163    8.8918 C.ar    1  UNL1        0.0156
     29 C          60.2762   86.6041    8.0775 C.ar    1  UNL1        0.0023
     30 C          60.2598   85.5707    6.9905 C.ar    1  UNL1        0.0114
     31 C          61.4850   84.7494    6.7177 C.ar    1  UNL1        0.0577
     32 CL         61.4685   83.7160    5.6306 Cl      1  UNL1       -0.0822
     33 C          62.7267   84.9616    7.5320 C.ar    1  UNL1        0.0114
     34 C          62.7431   85.9950    8.6191 C.ar    1  UNL1        0.0023
@<TRIPOS>BOND
     1     9    10    1
     2    10    11   ar
     3    11    12   ar
     4    12     1    1
     5     1    18    1
     6    18    19   am
     7    19    20    2
     8    19    22    1
     9    22    23   ar
    10    23    24   ar
    11    24    25   ar
    12    25    28    1
    13    28    29   ar
    14    29    30   ar
    15    30    31   ar
    16    31    32    1
    17    31    33   ar
    18    33    34   ar
    19    25    26   ar
    20     1     2    1
    21     2     3    1
    22     3     4    1
    23     4     5    1
    24     5     6    1
    25     6     7    1
    26    12    13   ar
    27    13    14   ar
    28    14    15    1
    29    15    16    1
    30    14    10   ar
    31    26    22   ar
    32     7     2    1
    33    34    28   ar
    34    18    21    1
    35    26    27    1
    36     7     8    1
    37    16    17    1
@<TRIPOS>MOLECULE
*****
 34 37 0 0 0
SMALL
GASTEIGER

@<TRIPOS>ATOM
      1 C          63.0787   89.3208   12.5183 C.3     1  UNL1        0.1329
      2 C          61.7178   89.8079   12.1172 C.3     1  UNL1        0.0785
      3 C          61.5066   90.4093   10.7594 C.3     1  UNL1        0.0179
      4 C          60.1458   90.8964   10.3583 C.3     1  UNL1        0.0029
      5 C          58.9962   90.7821   11.3152 C.3     1  UNL1        0.0171
      6 C          59.2074   90.1807   12.6729 C.3     1  UNL1        0.0686
      7 N          60.5683   89.6936   13.0740 N.3     1  UNL1       -0.2969
      8 H          60.4716   88.7040   13.3013 H       1  UNL1        0.1233
      9 C          66.9787   91.6362   15.2219 C.3     1  UNL1        0.0524
     10 C          65.9216   91.3651   14.1928 C.ar    1  UNL1        0.0640
     11 N          65.0318   90.1587   14.1395 N.ar    1  UNL1       -0.2456
     12 C          64.1289   90.3008   12.9501 C.ar    1  UNL1        0.1067
     13 S          64.4607   91.5951   12.2684 S.2     1  UNL1       -0.0714
     14 C          65.5686   92.2529   13.0364 C.ar    1  UNL1        0.0512
     15 C          66.2108   93.5676   12.7060 C.3     1  UNL1        0.1713
     16 O          66.0874   94.7222   13.6556 O.3     1  UNL1       -0.3767
     17 H          65.1601   95.0024   13.7051 H       1  UNL1        0.2109
     18 N          63.3893   87.8536   12.4875 N.am    1  UNL1       -0.2946
     19 C          63.5620   87.0965   13.7708 C.2     1  UNL1        0.2618
     20 O          63.4240   87.8065   15.0850 O.2     1  UNL1       -0.2686
     21 H          63.4798   87.3876   11.6250 H       1  UNL1        0.1501
     22 C          63.8726   85.6293   13.7401 C.ar    1  UNL1        0.1107
     23 C          64.8598   84.9185   14.6177 C.ar    1  UNL1        0.0231
     24 C          64.8479   83.4652   14.2463 C.ar    1  UNL1        0.0186
     25 C          63.8534   83.2779   13.1391 C.ar    1  UNL1        0.0567
     26 N          63.2506   84.6154   12.8263 N.ar    1  UNL1       -0.3496
     27 H          62.5668   84.7960   12.1414 H       1  UNL1        0.1661
     28 C          63.5201   81.9808   12.4634 C.ar    1  UNL1        0.0156
     29 C          63.0550   80.8093   13.2766 C.ar    1  UNL1        0.0023
     30 C          62.7217   79.5123   12.6009 C.ar    1  UNL1        0.0114
     31 C          62.8535   79.3868   11.1120 C.ar    1  UNL1        0.0577
     32 CL         62.5203   78.0897   10.4362 Cl      1  UNL1       -0.0822
     33 C          63.3186   80.5583   10.2988 C.ar    1  UNL1        0.0114
     34 C          63.6519   81.8553   10.9745 C.ar    1  UNL1        0.0023
@<TRIPOS>BOND
     1     9    10    1
     2    10    11   ar
     3    11    12   ar
     4    12     1    1
     5     1    18    1
     6    18    19   am
     7    19    20    2
     8    19    22    1
     9    22    23   ar
    10    23    24   ar
    11    24    25   ar
    12    25    28    1
    13    28    29   ar
    14    29    30   ar
    15    30    31   ar
    16    31    32    1
    17    31    33   ar
    18    33    34   ar
    19    25    26   ar
    20     1     2    1
    21     2     3    1
    22     3     4    1
    23     4     5    1
    24     5     6    1
    25     6     7    1
    26    12    13   ar
    27    13    14   ar
    28    14    15    1
    29    15    16    1
    30    14    10   ar
    31    26    22   ar
    32     7     2    1
    33    34    28   ar
    34    18    21    1
    35    26    27    1
    36     7     8    1
    37    16    17    1
@<TRIPOS>MOLECULE
*****
 34 37 0 0 0
SMALL
GASTEIGER

@<TRIPOS>ATOM
      1 C          65.3414   91.3695   12.9325 C.3     1  UNL1        0.1329
      2 C          65.3693   91.7929   14.3712 C.3     1  UNL1        0.0785
      3 C          64.1820   91.5367   15.2514 C.3     1  UNL1        0.0179
      4 C          64.2098   91.9600   16.6902 C.3     1  UNL1        0.0029
      5 C          65.4249   92.6395   17.2487 C.3     1  UNL1        0.0171
      6 C          66.6122   92.8957   16.3685 C.3     1  UNL1        0.0686
      7 N          66.5843   92.4723   14.9297 N.3     1  UNL1       -0.2969
      8 H          67.3672   91.8323   14.7959 H       1  UNL1        0.1233
      9 C          68.0327   93.3076    8.8238 C.3     1  UNL1        0.0524
     10 C          67.0835   93.1884    9.9791 C.ar    1  UNL1        0.0640
     11 N          66.8874   91.9738   10.8372 N.ar    1  UNL1       -0.2456
     12 C          65.8465   92.2975   11.8677 C.ar    1  UNL1        0.1067
     13 S          65.3995   93.7121   11.6464 S.2     1  UNL1       -0.0714
     14 C          66.1640   94.2628   10.4793 C.ar    1  UNL1        0.0512
     15 C          66.0321   95.6450    9.9118 C.3     1  UNL1        0.1713
     16 O          64.7004   96.1302    9.4206 O.3     1  UNL1       -0.3767
     17 H          64.4325   95.6107    8.6465 H       1  UNL1        0.2109
     18 N          64.8085   90.0182   12.5585 N.am    1  UNL1       -0.2946
     19 C          63.3817   89.8697   12.1200 C.2     1  UNL1        0.2618
     20 O          62.4878   91.0726   12.0556 O.2     1  UNL1       -0.2686
     21 H          65.3952   89.2287   12.6007 H       1  UNL1        0.1501
     22 C          62.8488   88.5184   11.7460 C.ar    1  UNL1        0.1107
     23 C          61.8372   88.2350   10.6753 C.ar    1  UNL1        0.0231
     24 C          61.5971   86.7546   10.6446 C.ar    1  UNL1        0.0186
     25 C          62.4602   86.1232   11.6963 C.ar    1  UNL1        0.0567
     26 N          63.2338   87.2132   12.3770 N.ar    1  UNL1       -0.3496
     27 H          63.8807   87.0931   13.1094 H       1  UNL1        0.1661
     28 C          62.5364   84.6587   12.0120 C.ar    1  UNL1        0.0156
     29 C          62.8423   83.6720   10.9244 C.ar    1  UNL1        0.0023
     30 C          62.9185   82.2076   11.2401 C.ar    1  UNL1        0.0114
     31 C          62.6888   81.7299   12.6434 C.ar    1  UNL1        0.0577
     32 CL         62.7650   80.2654   12.9590 Cl      1  UNL1       -0.0822
     33 C          62.3829   82.7166   13.7309 C.ar    1  UNL1        0.0114
     34 C          62.3067   84.1810   13.4152 C.ar    1  UNL1        0.0023
@<TRIPOS>BOND
     1     9    10    1
     2    10    11   ar
     3    11    12   ar
     4    12     1    1
     5     1    18    1
     6    18    19   am
     7    19    20    2
     8    19    22    1
     9    22    23   ar
    10    23    24   ar
    11    24    25   ar
    12    25    28    1
    13    28    29   ar
    14    29    30   ar
    15    30    31   ar
    16    31    32    1
    17    31    33   ar
    18    33    34   ar
    19    25    26   ar
    20     1     2    1
    21     2     3    1
    22     3     4    1
    23     4     5    1
    24     5     6    1
    25     6     7    1
    26    12    13   ar
    27    13    14   ar
    28    14    15    1
    29    15    16    1
    30    14    10   ar
    31    26    22   ar
    32     7     2    1
    33    34    28   ar
    34    18    21    1
    35    26    27    1
    36     7     8    1
    37    16    17    1
