@<TRIPOS>MOLECULE
*****
 66 73 0 0 0
SMALL
GASTEIGER

@<TRIPOS>ATOM
      1 N          65.3802   89.3156   14.4623 N.3     1  UNL1       -0.1862
      2 C          65.5862   88.0691   15.2708 C.3     1  UNL1        0.1775
      3 C          64.7942   86.8339   14.9597 C.2     1  UNL1        0.2452
      4 O          65.0002   85.5874   15.7684 O.2     1  UNL1       -0.2732
      5 N          63.7961   86.8451   13.8400 N.am    1  UNL1       -0.2541
      6 C          63.0041   85.6098   13.5289 C.3     1  UNL1        0.1577
      7 C          62.0060   85.6210   12.4093 C.2     1  UNL1        0.2445
      8 O          61.2140   84.3858   12.0981 O.2     1  UNL1       -0.2731
      9 N          61.8000   86.8675   11.6006 N.am    1  UNL1       -0.2705
     10 C          62.5921   88.1028   11.9117 C.3     1  UNL1        0.1359
     11 C          63.5901   88.0916   13.0315 C.3     1  UNL1        0.1908
     12 N          64.3822   89.3268   13.3426 N.am    1  UNL1       -0.1863
     13 C          64.1761   90.5733   12.5340 C.2     1  UNL1        0.3191
     14 O          63.1781   90.5845   11.4143 O.2     1  UNL1       -0.2512
     15 N          64.9682   91.8086   12.8451 N.am    1  UNL1       -0.2836
     16 H          65.6232   91.8012   13.5800 H       1  UNL1        0.1513
     17 C          66.1723   90.5509   14.7734 C.3     1  UNL1        0.1188
     18 C          66.4465   92.6597   16.2658 C.2     1  UNL1       -0.0034
     19 C          65.5652   91.6413   15.6055 C.2     1  UNL1       -0.0071
     20 C          63.2101   84.3634   14.3375 C.3     1  UNL1        0.0556
     21 C          63.0538   83.0175   13.6939 C.ar    1  UNL1       -0.0198
     22 C          62.0936   82.0185   14.2683 C.ar    1  UNL1       -0.0011
     23 C          61.9373   80.6726   13.6247 C.ar    1  UNL1        0.0363
     24 C          62.7412   80.3257   12.4067 C.ar    1  UNL1        0.1337
     25 O          62.5849   78.9799   11.7631 O.3     1  UNL1       -0.5055
     26 C          63.7014   81.3248   11.8323 C.ar    1  UNL1        0.0363
     27 C          63.8577   82.6707   12.4759 C.ar    1  UNL1       -0.0011
     28 H          61.9851   78.3558   12.1219 H       1  UNL1        0.2922
     29 C          60.8020   86.8788   10.4809 C.3     1  UNL1        0.1217
     30 C          60.3858   88.1794    9.8601 C.ar    1  UNL1        0.0135
     31 C          60.0969   89.3670   10.7296 C.ar    1  UNL1       -0.0012
     32 C          59.6808   90.6675   10.1088 C.ar    1  UNL1       -0.0002
     33 C          59.5537   90.7804    8.6185 C.ar    1  UNL1        0.0016
     34 C          59.8426   89.5928    7.7490 C.ar    1  UNL1        0.0214
     35 C          59.8028   89.4046    6.2614 C.ar    1  UNL1        0.0722
     36 C          60.1943   87.9877    5.9628 C.ar    1  UNL1        0.0805
     37 N          60.4760   87.3003    7.2658 N.ar    1  UNL1       -0.3241
     38 C          60.9006   85.8717    7.4352 C.3     1  UNL1        0.1305
     39 C          60.2587   88.2923    8.3698 C.ar    1  UNL1        0.0577
     40 C          59.4359   90.4498    5.2499 C.2     1  UNL1        0.2510
     41 O          57.9949   90.7964    5.0185 O.2     1  UNL1       -0.2698
     42 N          60.5099   91.1484    4.4700 N.am    1  UNL1       -0.2791
     43 H          61.4557   90.9210    4.6219 H       1  UNL1        0.1552
     44 C          60.1431   92.1936    3.4586 C.ar    1  UNL1        0.0701
     45 C          59.7956   91.7907    2.0561 C.ar    1  UNL1        0.0191
     46 C          59.4288   92.8358    1.0446 C.ar    1  UNL1        0.0354
     47 C          59.4095   94.2838    1.4355 C.ar    1  UNL1        0.1286
     48 N          59.7570   94.6867    2.8380 N.ar    1  UNL1       -0.2281
     49 C          60.1238   93.6416    3.8495 C.ar    1  UNL1        0.1149
     50 N          59.0427   95.3290    0.4241 N.pl3   1  UNL1       -0.3169
     51 H          58.5167   96.1152    0.6972 H       1  UNL1        0.1482
     52 C          59.4772   95.1764   -1.0035 C.3     1  UNL1        0.1057
     53 C          58.4604   95.2171   -2.1055 C.3     1  UNL1        0.0936
     54 N          57.7579   93.9598   -2.5246 N.3     1  UNL1       -0.2712
     55 C          58.0555   93.3438   -3.8595 C.3     1  UNL1        0.0721
     56 C          57.3529   92.0864   -4.2785 C.3     1  UNL1        0.0174
     57 C          56.3529   91.4452   -3.3627 C.3     1  UNL1        0.0029
     58 C          56.0553   92.0613   -2.0278 C.3     1  UNL1        0.0174
     59 C          56.7579   93.3186   -1.6088 C.3     1  UNL1        0.0721
     60 C          64.7622   93.0551   12.0365 C.3     1  UNL1        0.1177
     61 C          65.8240   93.5135   11.0813 C.ar    1  UNL1       -0.0025
     62 C          65.9505   94.9693   10.7428 C.ar    1  UNL1       -0.0026
     63 C          67.0123   95.4277    9.7876 C.ar    1  UNL1       -0.0003
     64 C          67.9476   94.4303    9.1709 C.ar    1  UNL1       -0.0000
     65 C          67.8212   92.9744    9.5094 C.ar    1  UNL1       -0.0003
     66 C          66.7594   92.5160   10.4646 C.ar    1  UNL1       -0.0026
@<TRIPOS>BOND
     1    18    19    2
     2    19    17    1
     3    17     1    1
     4     1     2    1
     5     2     3    1
     6     3     4    2
     7     3     5   am
     8     5     6    1
     9     6    20    1
    10    20    21    1
    11    21    22   ar
    12    22    23   ar
    13    23    24   ar
    14    24    25    1
    15    24    26   ar
    16    26    27   ar
    17     6     7    1
    18     7     8    2
    19     7     9   am
    20     9    29    1
    21    29    30    1
    22    30    31   ar
    23    31    32   ar
    24    32    33   ar
    25    33    34   ar
    26    34    35   ar
    27    35    40    1
    28    40    41    2
    29    40    42   am
    30    42    44    1
    31    44    45   ar
    32    45    46   ar
    33    46    47   ar
    34    47    50    1
    35    50    52    1
    36    52    53    1
    37    53    54    1
    38    54    55    1
    39    55    56    1
    40    56    57    1
    41    57    58    1
    42    58    59    1
    43    47    48   ar
    44    48    49   ar
    45    35    36   ar
    46    36    37   ar
    47    37    38    1
    48    37    39   ar
    49     9    10    1
    50    10    11    1
    51    11    12    1
    52    12    13   am
    53    13    14    2
    54    13    15   am
    55    15    60    1
    56    60    61    1
    57    61    62   ar
    58    62    63   ar
    59    63    64   ar
    60    64    65   ar
    61    65    66   ar
    62    12     1    1
    63    66    61   ar
    64    11     5    1
    65    27    21   ar
    66    39    30   ar
    67    39    34   ar
    68    49    44   ar
    69    59    54    1
    70    25    28    1
    71    42    43    1
    72    50    51    1
    73    15    16    1
@<TRIPOS>MOLECULE
*****
 66 73 0 0 0
SMALL
GASTEIGER

@<TRIPOS>ATOM
      1 N          65.3661   89.2189   14.5121 N.3     1  UNL1       -0.1862
      2 C          65.5675   87.9620   15.3055 C.3     1  UNL1        0.1775
      3 C          64.7749   86.7319   14.9758 C.2     1  UNL1        0.2452
      4 O          64.9763   85.4749   15.7693 O.2     1  UNL1       -0.2732
      5 N          63.7809   86.7588   13.8528 N.am    1  UNL1       -0.2541
      6 C          62.9883   85.5287   13.5231 C.3     1  UNL1        0.1577
      7 C          61.9943   85.5555   12.4001 C.2     1  UNL1        0.2445
      8 O          61.2017   84.3255   12.0704 O.2     1  UNL1       -0.2731
      9 N          61.7929   86.8125   11.6066 N.am    1  UNL1       -0.2705
     10 C          62.5855   88.0426   11.9363 C.3     1  UNL1        0.1359
     11 C          63.5795   88.0157   13.0594 C.3     1  UNL1        0.1908
     12 N          64.3722   89.2458   13.3891 N.am    1  UNL1       -0.1863
     13 C          64.1708   90.5028   12.5956 C.2     1  UNL1        0.3191
     14 O          63.1768   90.5296   11.4726 O.2     1  UNL1       -0.2512
     15 N          64.9634   91.7328   12.9253 N.am    1  UNL1       -0.2836
     16 H          65.6158   91.7152   13.6624 H       1  UNL1        0.1513
     17 C          66.1587   90.4490   14.8417 C.3     1  UNL1        0.1188
     18 C          66.3068   92.7886   15.9615 C.2     1  UNL1       -0.0034
     19 C          65.5780   91.4954   15.7460 C.2     1  UNL1       -0.0071
     20 C          63.1896   84.2717   14.3165 C.3     1  UNL1        0.0556
     21 C          63.0424   82.9344   13.6532 C.ar    1  UNL1       -0.0198
     22 C          63.8115   82.6290   12.4021 C.ar    1  UNL1       -0.0011
     23 C          63.6643   81.2918   11.7388 C.ar    1  UNL1        0.0363
     24 C          62.7479   80.2599   12.3266 C.ar    1  UNL1        0.1337
     25 O          62.6007   78.9226   11.6633 O.3     1  UNL1       -0.5055
     26 C          61.9788   80.5652   13.5777 C.ar    1  UNL1        0.0363
     27 C          62.1260   81.9025   14.2410 C.ar    1  UNL1       -0.0011
     28 H          63.0812   78.7318   10.8818 H       1  UNL1        0.2922
     29 C          60.7989   86.8394   10.4836 C.3     1  UNL1        0.1217
     30 C          60.3940   88.1477    9.8716 C.ar    1  UNL1        0.0135
     31 C          60.1252   89.3346   10.7485 C.ar    1  UNL1       -0.0012
     32 C          59.7203   90.6428   10.1365 C.ar    1  UNL1       -0.0002
     33 C          59.5840   90.7641    8.6477 C.ar    1  UNL1        0.0016
     34 C          59.8527   89.5771    7.7708 C.ar    1  UNL1        0.0214
     35 C          59.8004   89.3962    6.2827 C.ar    1  UNL1        0.0722
     36 C          60.1729   87.9762    5.9749 C.ar    1  UNL1        0.0805
     37 N          60.4556   87.2795    7.2728 N.ar    1  UNL1       -0.3241
     38 C          60.8644   85.8452    7.4328 C.3     1  UNL1        0.1305
     39 C          60.2577   88.2689    8.3827 C.ar    1  UNL1        0.0577
     40 C          59.4388   90.4504    5.2785 C.2     1  UNL1        0.2510
     41 O          58.0009   90.8191    5.0629 O.2     1  UNL1       -0.2698
     42 N          60.5152   91.1357    4.4900 N.am    1  UNL1       -0.2791
     43 H          61.4589   90.8937    4.6316 H       1  UNL1        0.1552
     44 C          60.1537   92.1898    3.4860 C.ar    1  UNL1        0.0701
     45 C          59.8069   91.7987    2.0800 C.ar    1  UNL1        0.0191
     46 C          59.4454   92.8527    1.0758 C.ar    1  UNL1        0.0354
     47 C          59.4308   94.2978    1.4776 C.ar    1  UNL1        0.1286
     48 N          59.7777   94.6889    2.8836 N.ar    1  UNL1       -0.2281
     49 C          60.1392   93.6349    3.8878 C.ar    1  UNL1        0.1149
     50 N          59.0694   95.3519    0.4735 N.pl3   1  UNL1       -0.3169
     51 H          58.1630   95.7362    0.4678 H       1  UNL1        0.1482
     52 C          60.0890   95.8205   -0.5220 C.3     1  UNL1        0.1057
     53 C          61.2702   94.9560   -0.8494 C.3     1  UNL1        0.0936
     54 N          62.5131   95.0363   -0.0134 N.3     1  UNL1       -0.2712
     55 C          62.6223   96.0669    1.0710 C.3     1  UNL1        0.0721
     56 C          63.8653   96.1471    1.9069 C.3     1  UNL1        0.0174
     57 C          64.9989   95.1968    1.6584 C.3     1  UNL1        0.0029
     58 C          64.8896   94.1662    0.5740 C.3     1  UNL1        0.0174
     59 C          63.6467   94.0860   -0.2620 C.3     1  UNL1        0.0721
     60 C          64.7620   92.9898   12.1319 C.3     1  UNL1        0.1177
     61 C          65.8086   93.4352   11.1540 C.ar    1  UNL1       -0.0025
     62 C          65.8936   94.8777   10.7516 C.ar    1  UNL1       -0.0026
     63 C          66.9402   95.3231    9.7737 C.ar    1  UNL1       -0.0003
     64 C          67.9018   94.3261    9.1982 C.ar    1  UNL1       -0.0000
     65 C          67.8168   92.8835    9.6006 C.ar    1  UNL1       -0.0003
     66 C          66.7702   92.4381   10.5785 C.ar    1  UNL1       -0.0026
@<TRIPOS>BOND
     1    18    19    2
     2    19    17    1
     3    17     1    1
     4     1     2    1
     5     2     3    1
     6     3     4    2
     7     3     5   am
     8     5     6    1
     9     6    20    1
    10    20    21    1
    11    21    22   ar
    12    22    23   ar
    13    23    24   ar
    14    24    25    1
    15    24    26   ar
    16    26    27   ar
    17     6     7    1
    18     7     8    2
    19     7     9   am
    20     9    29    1
    21    29    30    1
    22    30    31   ar
    23    31    32   ar
    24    32    33   ar
    25    33    34   ar
    26    34    35   ar
    27    35    40    1
    28    40    41    2
    29    40    42   am
    30    42    44    1
    31    44    45   ar
    32    45    46   ar
    33    46    47   ar
    34    47    50    1
    35    50    52    1
    36    52    53    1
    37    53    54    1
    38    54    55    1
    39    55    56    1
    40    56    57    1
    41    57    58    1
    42    58    59    1
    43    47    48   ar
    44    48    49   ar
    45    35    36   ar
    46    36    37   ar
    47    37    38    1
    48    37    39   ar
    49     9    10    1
    50    10    11    1
    51    11    12    1
    52    12    13   am
    53    13    14    2
    54    13    15   am
    55    15    60    1
    56    60    61    1
    57    61    62   ar
    58    62    63   ar
    59    63    64   ar
    60    64    65   ar
    61    65    66   ar
    62    12     1    1
    63    66    61   ar
    64    11     5    1
    65    27    21   ar
    66    39    30   ar
    67    39    34   ar
    68    49    44   ar
    69    59    54    1
    70    25    28    1
    71    42    43    1
    72    50    51    1
    73    15    16    1
@<TRIPOS>MOLECULE
*****
 66 73 0 0 0
SMALL
GASTEIGER

@<TRIPOS>ATOM
      1 N          65.7343   89.8681   13.9890 N.3     1  UNL1       -0.1862
      2 C          66.1568   88.6945   14.8221 C.3     1  UNL1        0.1775
      3 C          65.3533   87.4281   14.7961 C.2     1  UNL1        0.2452
      4 O          65.7760   86.2544   15.6292 O.2     1  UNL1       -0.2732
      5 N          64.1273   87.3353   13.9370 N.am    1  UNL1       -0.2541
      6 C          63.3238   86.0689   13.9109 C.3     1  UNL1        0.1577
      7 C          62.0977   85.9762   13.0518 C.2     1  UNL1        0.2445
      8 O          61.2942   84.7098   13.0258 O.2     1  UNL1       -0.2731
      9 N          61.6751   87.1498   12.2187 N.am    1  UNL1       -0.2705
     10 C          62.4786   88.4162   12.2448 C.3     1  UNL1        0.1359
     11 C          63.7047   88.5089   13.1039 C.3     1  UNL1        0.1908
     12 N          64.5082   89.7753   13.1299 N.am    1  UNL1       -0.1863
     13 C          64.0856   90.9489   12.2968 C.2     1  UNL1        0.3191
     14 O          62.8595   90.8562   11.4377 O.2     1  UNL1       -0.2512
     15 N          64.8891   92.2153   12.3228 N.am    1  UNL1       -0.2836
     16 H          65.6938   92.2762   12.8867 H       1  UNL1        0.1513
     17 C          66.5378   91.1344   14.0151 C.3     1  UNL1        0.1188
     18 C          68.0207   92.3545   15.7649 C.2     1  UNL1       -0.0034
     19 C          66.6679   91.9141   15.2899 C.2     1  UNL1       -0.0071
     20 C          63.7463   84.8953   14.7440 C.3     1  UNL1        0.0556
     21 C          63.4254   83.5012   14.2931 C.ar    1  UNL1       -0.0198
     22 C          64.2730   82.8368   13.2491 C.ar    1  UNL1       -0.0011
     23 C          63.9521   81.4426   12.7982 C.ar    1  UNL1        0.0363
     24 C          62.7836   80.7128   13.3914 C.ar    1  UNL1        0.1337
     25 O          62.4626   79.3186   12.9405 O.3     1  UNL1       -0.5055
     26 C          61.9359   81.3772   14.4355 C.ar    1  UNL1        0.0363
     27 C          62.2568   82.7714   14.8863 C.ar    1  UNL1       -0.0011
     28 H          62.9921   78.9036   12.2883 H       1  UNL1        0.2922
     29 C          60.4490   87.0571   11.3596 C.3     1  UNL1        0.1217
     30 C          60.5712   87.1392    9.8668 C.ar    1  UNL1        0.0135
     31 C          61.0394   85.9472    9.0859 C.ar    1  UNL1       -0.0012
     32 C          61.1616   86.0293    7.5932 C.ar    1  UNL1       -0.0002
     33 C          60.8155   87.3034    6.8814 C.ar    1  UNL1        0.0016
     34 C          60.3473   88.4954    7.6622 C.ar    1  UNL1        0.0214
     35 C          59.9379   89.8750    7.2389 C.ar    1  UNL1        0.0722
     36 C          59.5626   90.6454    8.4699 C.ar    1  UNL1        0.0805
     37 N          59.7401   89.7421    9.6541 N.ar    1  UNL1       -0.3241
     38 C          59.4786   90.1040   11.0861 C.3     1  UNL1        0.1305
     39 C          60.2251   88.4133    9.1550 C.ar    1  UNL1        0.0577
     40 C          59.9088   90.3931    5.8314 C.2     1  UNL1        0.2510
     41 O          58.7394   90.0864    4.9433 O.2     1  UNL1       -0.2698
     42 N          61.0490   91.2177    5.3120 N.am    1  UNL1       -0.2791
     43 H          61.8165   91.4189    5.8949 H       1  UNL1        0.1552
     44 C          61.0200   91.7358    3.9047 C.ar    1  UNL1        0.0701
     45 C          62.2379   91.6182    3.0370 C.ar    1  UNL1        0.0191
     46 C          62.2090   92.1363    1.6297 C.ar    1  UNL1        0.0354
     47 C          60.9622   92.7720    1.0899 C.ar    1  UNL1        0.1286
     48 N          59.7442   92.8895    1.9576 N.ar    1  UNL1       -0.2281
     49 C          59.7732   92.3715    3.3650 C.ar    1  UNL1        0.1149
     50 N          60.9332   93.2901   -0.3174 N.pl3   1  UNL1       -0.3169
     51 H          61.2757   92.7337   -1.0539 H       1  UNL1        0.1482
     52 C          60.3823   94.6558   -0.6027 C.3     1  UNL1        0.1057
     53 C          58.9135   94.8360   -0.8480 C.3     1  UNL1        0.0936
     54 N          58.1638   93.8373   -1.6790 N.3     1  UNL1       -0.2712
     55 C          58.7233   93.3865   -2.9957 C.3     1  UNL1        0.0721
     56 C          57.9736   92.3878   -3.8267 C.3     1  UNL1        0.0174
     57 C          56.6645   91.8399   -3.3409 C.3     1  UNL1        0.0029
     58 C          56.1050   92.2906   -2.0242 C.3     1  UNL1        0.0174
     59 C          56.8548   93.2894   -1.1932 C.3     1  UNL1        0.0721
     60 C          64.4665   93.3889   11.4898 C.3     1  UNL1        0.1177
     61 C          65.4683   94.0936   10.6239 C.ar    1  UNL1       -0.0025
     62 C          66.5843   93.3202    9.9865 C.ar    1  UNL1       -0.0026
     63 C          67.5862   94.0248    9.1206 C.ar    1  UNL1       -0.0003
     64 C          67.4720   95.5029    8.8921 C.ar    1  UNL1       -0.0000
     65 C          66.3559   96.2764    9.5295 C.ar    1  UNL1       -0.0003
     66 C          65.3541   95.5717   10.3954 C.ar    1  UNL1       -0.0026
@<TRIPOS>BOND
     1    18    19    2
     2    19    17    1
     3    17     1    1
     4     1     2    1
     5     2     3    1
     6     3     4    2
     7     3     5   am
     8     5     6    1
     9     6    20    1
    10    20    21    1
    11    21    22   ar
    12    22    23   ar
    13    23    24   ar
    14    24    25    1
    15    24    26   ar
    16    26    27   ar
    17     6     7    1
    18     7     8    2
    19     7     9   am
    20     9    29    1
    21    29    30    1
    22    30    31   ar
    23    31    32   ar
    24    32    33   ar
    25    33    34   ar
    26    34    35   ar
    27    35    40    1
    28    40    41    2
    29    40    42   am
    30    42    44    1
    31    44    45   ar
    32    45    46   ar
    33    46    47   ar
    34    47    50    1
    35    50    52    1
    36    52    53    1
    37    53    54    1
    38    54    55    1
    39    55    56    1
    40    56    57    1
    41    57    58    1
    42    58    59    1
    43    47    48   ar
    44    48    49   ar
    45    35    36   ar
    46    36    37   ar
    47    37    38    1
    48    37    39   ar
    49     9    10    1
    50    10    11    1
    51    11    12    1
    52    12    13   am
    53    13    14    2
    54    13    15   am
    55    15    60    1
    56    60    61    1
    57    61    62   ar
    58    62    63   ar
    59    63    64   ar
    60    64    65   ar
    61    65    66   ar
    62    12     1    1
    63    66    61   ar
    64    11     5    1
    65    27    21   ar
    66    39    30   ar
    67    39    34   ar
    68    49    44   ar
    69    59    54    1
    70    25    28    1
    71    42    43    1
    72    50    51    1
    73    15    16    1
@<TRIPOS>MOLECULE
*****
 66 73 0 0 0
SMALL
GASTEIGER

@<TRIPOS>ATOM
      1 N          61.1263   94.5234   -5.0175 N.3     1  UNL1       -0.1862
      2 C          59.7295   94.0184   -5.2268 C.3     1  UNL1        0.1775
      3 C          58.8781   93.6565   -4.0460 C.2     1  UNL1        0.2452
      4 O          57.4812   93.1514   -4.2553 O.2     1  UNL1       -0.2732
      5 N          59.4235   93.7996   -2.6561 N.am    1  UNL1       -0.2541
      6 C          58.5721   93.4377   -1.4754 C.3     1  UNL1        0.1577
      7 C          59.1174   93.5809   -0.0854 C.2     1  UNL1        0.2445
      8 O          58.2660   93.2189    1.0953 O.2     1  UNL1       -0.2731
      9 N          60.5143   94.0860    0.1239 N.am    1  UNL1       -0.2705
     10 C          61.3657   94.4479   -1.0568 C.3     1  UNL1        0.1359
     11 C          60.8203   94.3047   -2.4469 C.3     1  UNL1        0.1908
     12 N          61.6717   94.6666   -3.6276 N.am    1  UNL1       -0.1863
     13 C          63.0685   95.1717   -3.4183 C.2     1  UNL1        0.3191
     14 O          63.6139   95.3149   -2.0283 O.2     1  UNL1       -0.2512
     15 N          63.9200   95.5336   -4.5990 N.am    1  UNL1       -0.2836
     16 H          63.5620   95.4397   -5.5113 H       1  UNL1        0.1513
     17 C          61.9777   94.8854   -6.1983 C.3     1  UNL1        0.1188
     18 C          63.1114   96.7907   -7.5526 C.2     1  UNL1       -0.0034
     19 C          61.9598   96.2860   -6.7347 C.2     1  UNL1       -0.0071
     20 C          57.1753   92.9326   -1.6846 C.3     1  UNL1        0.0556
     21 C          56.0641   93.8979   -1.9739 C.ar    1  UNL1       -0.0198
     22 C          55.3065   94.5299   -0.8441 C.ar    1  UNL1       -0.0011
     23 C          54.1954   95.4952   -1.1334 C.ar    1  UNL1        0.0363
     24 C          53.8419   95.8284   -2.5525 C.ar    1  UNL1        0.1337
     25 O          52.7308   96.7937   -2.8418 O.3     1  UNL1       -0.5055
     26 C          54.5995   95.1964   -3.6824 C.ar    1  UNL1        0.0363
     27 C          55.7106   94.2311   -3.3931 C.ar    1  UNL1       -0.0011
     28 H          52.2575   97.1885   -2.1360 H       1  UNL1        0.2922
     29 C          61.0597   94.2291    1.5138 C.3     1  UNL1        0.1217
     30 C          61.5338   93.0184    2.2619 C.ar    1  UNL1        0.0135
     31 C          62.7636   92.2899    1.8071 C.ar    1  UNL1       -0.0012
     32 C          63.2378   91.0793    2.5551 C.ar    1  UNL1       -0.0002
     33 C          62.4822   90.5972    3.7579 C.ar    1  UNL1        0.0016
     34 C          61.2524   91.3258    4.2126 C.ar    1  UNL1        0.0214
     35 C          60.3087   91.0871    5.3539 C.ar    1  UNL1        0.0722
     36 C          59.2514   92.1501    5.3112 C.ar    1  UNL1        0.0805
     37 N          59.5415   93.0458    4.1436 N.ar    1  UNL1       -0.3241
     38 C          58.7364   94.2412    3.7279 C.3     1  UNL1        0.1305
     39 C          60.7782   92.5364    3.4646 C.ar    1  UNL1        0.0577
     40 C          60.4055   89.9796    6.3610 C.2     1  UNL1        0.2510
     41 O          60.0877   88.5699    5.9586 O.2     1  UNL1       -0.2698
     42 N          60.8200   90.2818    7.7706 N.am    1  UNL1       -0.2791
     43 H          61.0285   91.2070    8.0347 H       1  UNL1        0.1552
     44 C          60.9167   89.1745    8.7777 C.ar    1  UNL1        0.0701
     45 C          62.2276   88.4827    9.0081 C.ar    1  UNL1        0.0191
     46 C          62.3245   87.3753   10.0152 C.ar    1  UNL1        0.0354
     47 C          61.1105   86.9597   10.7920 C.ar    1  UNL1        0.1286
     48 N          59.7996   87.6515   10.5617 N.ar    1  UNL1       -0.2281
     49 C          59.7027   88.7589    9.5545 C.ar    1  UNL1        0.1149
     50 N          61.2072   85.8524   11.7992 N.pl3   1  UNL1       -0.3169
     51 H          60.6611   85.8824   12.6177 H       1  UNL1        0.1482
     52 C          62.1361   84.6993   11.5591 C.3     1  UNL1        0.1057
     53 C          63.3515   84.5233   12.4203 C.3     1  UNL1        0.0936
     54 N          63.5488   85.3936   13.6260 N.3     1  UNL1       -0.2712
     55 C          63.6536   86.8816   13.4679 C.3     1  UNL1        0.0721
     56 C          63.8509   87.7518   14.6737 C.3     1  UNL1        0.0174
     57 C          63.9433   87.1341   16.0374 C.3     1  UNL1        0.0029
     58 C          63.8386   85.6461   16.1955 C.3     1  UNL1        0.0174
     59 C          63.6413   84.7759   14.9897 C.3     1  UNL1        0.0721
     60 C          65.3167   96.0387   -4.3898 C.3     1  UNL1        0.1177
     61 C          66.3595   95.8196   -5.4455 C.ar    1  UNL1       -0.0025
     62 C          66.3292   94.5755   -6.2829 C.ar    1  UNL1       -0.0026
     63 C          67.3719   94.3564   -7.3387 C.ar    1  UNL1       -0.0003
     64 C          68.4451   95.3814   -7.5570 C.ar    1  UNL1       -0.0000
     65 C          68.4755   96.6255   -6.7196 C.ar    1  UNL1       -0.0003
     66 C          67.4327   96.8446   -5.6638 C.ar    1  UNL1       -0.0026
@<TRIPOS>BOND
     1    18    19    2
     2    19    17    1
     3    17     1    1
     4     1     2    1
     5     2     3    1
     6     3     4    2
     7     3     5   am
     8     5     6    1
     9     6    20    1
    10    20    21    1
    11    21    22   ar
    12    22    23   ar
    13    23    24   ar
    14    24    25    1
    15    24    26   ar
    16    26    27   ar
    17     6     7    1
    18     7     8    2
    19     7     9   am
    20     9    29    1
    21    29    30    1
    22    30    31   ar
    23    31    32   ar
    24    32    33   ar
    25    33    34   ar
    26    34    35   ar
    27    35    40    1
    28    40    41    2
    29    40    42   am
    30    42    44    1
    31    44    45   ar
    32    45    46   ar
    33    46    47   ar
    34    47    50    1
    35    50    52    1
    36    52    53    1
    37    53    54    1
    38    54    55    1
    39    55    56    1
    40    56    57    1
    41    57    58    1
    42    58    59    1
    43    47    48   ar
    44    48    49   ar
    45    35    36   ar
    46    36    37   ar
    47    37    38    1
    48    37    39   ar
    49     9    10    1
    50    10    11    1
    51    11    12    1
    52    12    13   am
    53    13    14    2
    54    13    15   am
    55    15    60    1
    56    60    61    1
    57    61    62   ar
    58    62    63   ar
    59    63    64   ar
    60    64    65   ar
    61    65    66   ar
    62    12     1    1
    63    66    61   ar
    64    11     5    1
    65    27    21   ar
    66    39    30   ar
    67    39    34   ar
    68    49    44   ar
    69    59    54    1
    70    25    28    1
    71    42    43    1
    72    50    51    1
    73    15    16    1
@<TRIPOS>MOLECULE
*****
 66 73 0 0 0
SMALL
GASTEIGER

@<TRIPOS>ATOM
      1 N          64.5546   83.1687   13.2060 N.3     1  UNL1       -0.1862
      2 C          65.1615   84.0476   14.2591 C.3     1  UNL1        0.1775
      3 C          64.7352   85.4809   14.3769 C.2     1  UNL1        0.2452
      4 O          65.3421   86.3598   15.4301 O.2     1  UNL1       -0.2732
      5 N          63.7019   86.0352   13.4415 N.am    1  UNL1       -0.2541
      6 C          63.2755   87.4685   13.5593 C.3     1  UNL1        0.1577
      7 C          62.2422   88.0229   12.6239 C.2     1  UNL1        0.2445
      8 O          61.8158   89.4562   12.7417 O.2     1  UNL1       -0.2731
      9 N          61.6353   87.1440   11.5707 N.am    1  UNL1       -0.2705
     10 C          62.0616   85.7107   11.4529 C.3     1  UNL1        0.1359
     11 C          63.0950   85.1563   12.3884 C.3     1  UNL1        0.1908
     12 N          63.5214   83.7230   12.2706 N.am    1  UNL1       -0.1863
     13 C          62.9144   82.8441   11.2174 C.2     1  UNL1        0.3191
     14 O          61.8811   83.3985   10.2821 O.2     1  UNL1       -0.2512
     15 N          63.3408   81.4108   11.0997 N.am    1  UNL1       -0.2836
     16 H          64.0190   81.0470   11.7136 H       1  UNL1        0.1513
     17 C          64.9810   81.7354   13.0882 C.3     1  UNL1        0.1188
     18 C          62.8009   80.8693   14.2049 C.2     1  UNL1       -0.0034
     19 C          64.2422   80.6688   13.8409 C.2     1  UNL1       -0.0071
     20 C          63.8824   88.3475   14.6124 C.3     1  UNL1        0.0556
     21 C          64.5709   89.6213   14.2208 C.ar    1  UNL1       -0.0198
     22 C          65.7821   90.0820   14.9762 C.ar    1  UNL1       -0.0011
     23 C          66.4706   91.3558   14.5846 C.ar    1  UNL1        0.0363
     24 C          65.9480   92.1689   13.4375 C.ar    1  UNL1        0.1337
     25 O          66.6365   93.4427   13.0459 O.3     1  UNL1       -0.5055
     26 C          64.7367   91.7081   12.6820 C.ar    1  UNL1        0.0363
     27 C          64.0482   90.4343   13.0736 C.ar    1  UNL1       -0.0011
     28 H          67.3931   93.7305   13.5178 H       1  UNL1        0.2922
     29 C          60.6020   87.6984   10.6353 C.3     1  UNL1        0.1217
     30 C          60.9427   88.8532    9.7407 C.ar    1  UNL1        0.0135
     31 C          61.9837   89.8473   10.1628 C.ar    1  UNL1       -0.0012
     32 C          62.3244   91.0021    9.2682 C.ar    1  UNL1       -0.0002
     33 C          61.6241   91.1628    7.9515 C.ar    1  UNL1        0.0016
     34 C          60.5831   90.1688    7.5294 C.ar    1  UNL1        0.0214
     35 C          59.7322   90.0681    6.2982 C.ar    1  UNL1        0.0722
     36 C          58.8657   88.8510    6.4319 C.ar    1  UNL1        0.0805
     37 N          59.1810   88.1996    7.7457 N.ar    1  UNL1       -0.3241
     38 C          58.5463   86.9526    8.2863 C.3     1  UNL1        0.1305
     39 C          60.2424   89.0140    8.4240 C.ar    1  UNL1        0.0577
     40 C          59.7456   91.0178    5.1371 C.2     1  UNL1        0.2510
     41 O          58.4719   91.6696    4.6867 O.2     1  UNL1       -0.2698
     42 N          61.0326   91.3156    4.4266 N.am    1  UNL1       -0.2791
     43 H          61.8685   90.8877    4.7222 H       1  UNL1        0.1552
     44 C          61.0460   92.2652    3.2655 C.ar    1  UNL1        0.0701
     45 C          62.2955   92.4402    2.4543 C.ar    1  UNL1        0.0191
     46 C          62.3090   93.3898    1.2932 C.ar    1  UNL1        0.0354
     47 C          61.0731   94.1644    0.9434 C.ar    1  UNL1        0.1286
     48 N          59.8236   93.9894    1.7547 N.ar    1  UNL1       -0.2281
     49 C          59.8100   93.0398    2.9158 C.ar    1  UNL1        0.1149
     50 N          61.0865   95.1140   -0.2176 N.pl3   1  UNL1       -0.3169
     51 H          61.1947   96.0801   -0.0621 H       1  UNL1        0.1482
     52 C          60.9351   94.5916   -1.6155 C.3     1  UNL1        0.1057
     53 C          60.4641   93.1859   -1.8441 C.3     1  UNL1        0.0936
     54 N          59.0136   92.9155   -2.1142 N.3     1  UNL1       -0.2712
     55 C          58.0638   92.7090   -0.9718 C.3     1  UNL1        0.0721
     56 C          56.6133   92.4386   -1.2419 C.3     1  UNL1        0.0174
     57 C          56.1127   92.3745   -2.6545 C.3     1  UNL1        0.0029
     58 C          57.0626   92.5810   -3.7969 C.3     1  UNL1        0.0174
     59 C          58.5131   92.8515   -3.5267 C.3     1  UNL1        0.0721
     60 C          62.7339   80.5319   10.0465 C.3     1  UNL1        0.1177
     61 C          63.1195   79.0846    9.9639 C.ar    1  UNL1       -0.0025
     62 C          64.1098   78.6300    8.9332 C.ar    1  UNL1       -0.0026
     63 C          64.4953   77.1827    8.8506 C.ar    1  UNL1       -0.0003
     64 C          63.8906   76.1902    9.7987 C.ar    1  UNL1       -0.0000
     65 C          62.9002   76.6448   10.8296 C.ar    1  UNL1       -0.0003
     66 C          62.5147   78.0921   10.9122 C.ar    1  UNL1       -0.0026
@<TRIPOS>BOND
     1    18    19    2
     2    19    17    1
     3    17     1    1
     4     1     2    1
     5     2     3    1
     6     3     4    2
     7     3     5   am
     8     5     6    1
     9     6    20    1
    10    20    21    1
    11    21    22   ar
    12    22    23   ar
    13    23    24   ar
    14    24    25    1
    15    24    26   ar
    16    26    27   ar
    17     6     7    1
    18     7     8    2
    19     7     9   am
    20     9    29    1
    21    29    30    1
    22    30    31   ar
    23    31    32   ar
    24    32    33   ar
    25    33    34   ar
    26    34    35   ar
    27    35    40    1
    28    40    41    2
    29    40    42   am
    30    42    44    1
    31    44    45   ar
    32    45    46   ar
    33    46    47   ar
    34    47    50    1
    35    50    52    1
    36    52    53    1
    37    53    54    1
    38    54    55    1
    39    55    56    1
    40    56    57    1
    41    57    58    1
    42    58    59    1
    43    47    48   ar
    44    48    49   ar
    45    35    36   ar
    46    36    37   ar
    47    37    38    1
    48    37    39   ar
    49     9    10    1
    50    10    11    1
    51    11    12    1
    52    12    13   am
    53    13    14    2
    54    13    15   am
    55    15    60    1
    56    60    61    1
    57    61    62   ar
    58    62    63   ar
    59    63    64   ar
    60    64    65   ar
    61    65    66   ar
    62    12     1    1
    63    66    61   ar
    64    11     5    1
    65    27    21   ar
    66    39    30   ar
    67    39    34   ar
    68    49    44   ar
    69    59    54    1
    70    25    28    1
    71    42    43    1
    72    50    51    1
    73    15    16    1
@<TRIPOS>MOLECULE
*****
 66 73 0 0 0
SMALL
GASTEIGER

@<TRIPOS>ATOM
      1 N          64.5509   83.1822   13.2085 N.3     1  UNL1       -0.1862
      2 C          65.1628   84.0670   14.2537 C.3     1  UNL1        0.1775
      3 C          64.7349   85.5002   14.3673 C.2     1  UNL1        0.2452
      4 O          65.3470   86.3850   15.4126 O.2     1  UNL1       -0.2732
      5 N          63.6950   86.0485   13.4358 N.am    1  UNL1       -0.2541
      6 C          63.2671   87.4817   13.5494 C.3     1  UNL1        0.1577
      7 C          62.2272   88.0300   12.6178 C.2     1  UNL1        0.2445
      8 O          61.7992   89.4632   12.7315 O.2     1  UNL1       -0.2731
      9 N          61.6151   87.1452   11.5726 N.am    1  UNL1       -0.2705
     10 C          62.0431   85.7120   11.4589 C.3     1  UNL1        0.1359
     11 C          63.0830   85.1637   12.3906 C.3     1  UNL1        0.1908
     12 N          63.5110   83.7306   12.2769 N.am    1  UNL1       -0.1863
     13 C          62.8989   82.8457   11.2316 C.2     1  UNL1        0.3191
     14 O          61.8590   83.3941   10.3001 O.2     1  UNL1       -0.2512
     15 N          63.3268   81.4126   11.1180 N.am    1  UNL1       -0.2836
     16 H          64.0094   81.0527   11.7294 H       1  UNL1        0.1513
     17 C          64.9788   81.7490   13.0948 C.3     1  UNL1        0.1188
     18 C          62.9251   80.3862   13.9164 C.2     1  UNL1       -0.0034
     19 C          64.3860   80.7149   14.0053 C.2     1  UNL1       -0.0071
     20 C          63.8791   88.3665   14.5946 C.3     1  UNL1        0.0556
     21 C          64.4784   89.6849   14.2039 C.ar    1  UNL1       -0.0198
     22 C          65.3716   90.4160   15.1618 C.ar    1  UNL1       -0.0011
     23 C          65.9710   91.7344   14.7712 C.ar    1  UNL1        0.0363
     24 C          65.6771   92.3217   13.4226 C.ar    1  UNL1        0.1337
     25 O          66.2764   93.6401   13.0319 O.3     1  UNL1       -0.5055
     26 C          64.7838   91.5906   12.4646 C.ar    1  UNL1        0.0363
     27 C          64.1845   90.2722   12.8553 C.ar    1  UNL1       -0.0011
     28 H          66.8344   94.0968   13.6303 H       1  UNL1        0.2922
     29 C          60.5752   87.6935   10.6410 C.3     1  UNL1        0.1217
     30 C          60.9065   88.8491    9.7437 C.ar    1  UNL1        0.0135
     31 C          61.9218   89.8658   10.1741 C.ar    1  UNL1       -0.0012
     32 C          62.2531   91.0213    9.2769 C.ar    1  UNL1       -0.0002
     33 C          61.5691   91.1600    7.9492 C.ar    1  UNL1        0.0016
     34 C          60.5537   90.1433    7.5188 C.ar    1  UNL1        0.0214
     35 C          59.7229   90.0182    6.2761 C.ar    1  UNL1        0.0722
     36 C          58.8782   88.7855    6.4054 C.ar    1  UNL1        0.0805
     37 N          59.1869   88.1487    7.7279 N.ar    1  UNL1       -0.3241
     38 C          58.5687   86.8931    8.2676 C.3     1  UNL1        0.1305
     39 C          60.2224   88.9878    8.4160 C.ar    1  UNL1        0.0577
     40 C          59.7348   90.9606    5.1091 C.2     1  UNL1        0.2510
     41 O          58.4503   91.5537    4.6109 O.2     1  UNL1       -0.2698
     42 N          61.0312   91.3098    4.4403 N.am    1  UNL1       -0.2791
     43 H          61.8743   90.9206    4.7673 H       1  UNL1        0.1552
     44 C          61.0432   92.2521    3.2733 C.ar    1  UNL1        0.0701
     45 C          62.1786   92.2182    2.2936 C.ar    1  UNL1        0.0191
     46 C          62.1907   93.1605    1.1266 C.ar    1  UNL1        0.0354
     47 C          61.0673   94.1366    0.9392 C.ar    1  UNL1        0.1286
     48 N          59.9319   94.1705    1.9188 N.ar    1  UNL1       -0.2281
     49 C          59.9198   93.2283    3.0859 C.ar    1  UNL1        0.1149
     50 N          61.0793   95.0789   -0.2278 N.pl3   1  UNL1       -0.3169
     51 H          60.4787   95.8590   -0.2368 H       1  UNL1        0.1482
     52 C          62.0063   94.8327   -1.3811 C.3     1  UNL1        0.1057
     53 C          61.6045   93.8929   -2.4790 C.3     1  UNL1        0.0936
     54 N          62.5491   93.6137   -3.6103 N.3     1  UNL1       -0.2712
     55 C          62.2796   94.1852   -4.9707 C.3     1  UNL1        0.0721
     56 C          63.2242   93.9059   -6.1020 C.3     1  UNL1        0.0174
     57 C          64.4381   93.0552   -5.8729 C.3     1  UNL1        0.0029
     58 C          64.7076   92.4837   -4.5125 C.3     1  UNL1        0.0174
     59 C          63.7630   92.7629   -3.3811 C.3     1  UNL1        0.0721
     60 C          62.7149   80.5277   10.0728 C.3     1  UNL1        0.1177
     61 C          63.1003   79.0801    9.9962 C.ar    1  UNL1       -0.0025
     62 C          64.0813   78.6190    8.9595 C.ar    1  UNL1       -0.0026
     63 C          64.4667   77.1713    8.8830 C.ar    1  UNL1       -0.0003
     64 C          63.8711   76.1849    9.8432 C.ar    1  UNL1       -0.0000
     65 C          62.8900   76.6460   10.8800 C.ar    1  UNL1       -0.0003
     66 C          62.5046   78.0936   10.9566 C.ar    1  UNL1       -0.0026
@<TRIPOS>BOND
     1    18    19    2
     2    19    17    1
     3    17     1    1
     4     1     2    1
     5     2     3    1
     6     3     4    2
     7     3     5   am
     8     5     6    1
     9     6    20    1
    10    20    21    1
    11    21    22   ar
    12    22    23   ar
    13    23    24   ar
    14    24    25    1
    15    24    26   ar
    16    26    27   ar
    17     6     7    1
    18     7     8    2
    19     7     9   am
    20     9    29    1
    21    29    30    1
    22    30    31   ar
    23    31    32   ar
    24    32    33   ar
    25    33    34   ar
    26    34    35   ar
    27    35    40    1
    28    40    41    2
    29    40    42   am
    30    42    44    1
    31    44    45   ar
    32    45    46   ar
    33    46    47   ar
    34    47    50    1
    35    50    52    1
    36    52    53    1
    37    53    54    1
    38    54    55    1
    39    55    56    1
    40    56    57    1
    41    57    58    1
    42    58    59    1
    43    47    48   ar
    44    48    49   ar
    45    35    36   ar
    46    36    37   ar
    47    37    38    1
    48    37    39   ar
    49     9    10    1
    50    10    11    1
    51    11    12    1
    52    12    13   am
    53    13    14    2
    54    13    15   am
    55    15    60    1
    56    60    61    1
    57    61    62   ar
    58    62    63   ar
    59    63    64   ar
    60    64    65   ar
    61    65    66   ar
    62    12     1    1
    63    66    61   ar
    64    11     5    1
    65    27    21   ar
    66    39    30   ar
    67    39    34   ar
    68    49    44   ar
    69    59    54    1
    70    25    28    1
    71    42    43    1
    72    50    51    1
    73    15    16    1
