@<TRIPOS>MOLECULE
*****
 31 33 0 0 0
SMALL
GASTEIGER

@<TRIPOS>ATOM
      1 C          63.5983   87.1367   13.3158 C.ar    1  UNL1        0.2204
      2 N          63.0706   87.8874   12.1291 N.ar    1  UNL1       -0.2089
      3 C          63.1602   89.3841   12.0880 C.ar    1  UNL1        0.1402
      4 C          63.7775   90.1303   13.2336 C.ar    1  UNL1        0.1773
      5 C          64.3052   89.3797   14.4202 C.ar    1  UNL1        0.1402
      6 N          64.2155   87.8829   14.4613 N.ar    1  UNL1       -0.2089
      7 C          65.2930   85.5849   15.2445 C.3     1  UNL1        0.0233
      8 C          64.3560   84.8641   14.3212 C.3     1  UNL1        0.0955
      9 C          64.2663   83.3673   14.3623 C.3     1  UNL1        0.1165
     10 N          63.3294   82.6465   13.4390 N.am    1  UNL1       -0.2426
     11 C          63.2397   81.1497   13.4801 C.2     1  UNL1        0.4052
     12 O          64.0871   80.3738   14.4444 O.2     1  UNL1       -0.2262
     13 C          62.4820   83.4224   12.4747 C.3     1  UNL1        0.1182
     14 C          62.5717   84.9191   12.4336 C.3     1  UNL1        0.1152
     15 N          63.5087   85.6399   13.3569 N.pl3   1  UNL1       -0.2764
     16 O          62.3027   80.4288   12.5568 O.3     1  UNL1       -0.4252
     17 C          62.7491   79.1757   11.8637 C.3     1  UNL1        0.3125
     18 C          62.8381   79.1376   10.3669 C.3     1  UNL1        0.4382
     19 F          62.9272   79.0994    8.8700 F       1  UNL1       -0.1663
     20 F          62.9670   80.6317   10.3364 F       1  UNL1       -0.1663
     21 F          62.7092   77.6434   10.3973 F       1  UNL1       -0.1663
     22 O          63.8671   91.6270   13.1924 O.3     1  UNL1       -0.4675
     23 C          65.1660   92.2913   12.8439 C.3     1  UNL1        0.2329
     24 C          66.2624   92.3762   13.8641 C.ar    1  UNL1        0.0339
     25 C          65.9246   92.5415   15.3162 C.ar    1  UNL1        0.0207
     26 C          67.0211   92.6263   16.3363 C.ar    1  UNL1        0.0987
     27 N          68.4553   92.5459   15.9043 N.ar    1  UNL1       -0.2416
     28 C          68.7930   92.3805   14.4522 C.ar    1  UNL1        0.1089
     29 C          67.6967   92.2957   13.4321 C.ar    1  UNL1        0.0871
     30 C          68.0345   92.1304   11.9800 C.1     1  UNL1        0.1018
     31 N          68.3722   91.9651   10.5279 N.1     1  UNL1       -0.1908
@<TRIPOS>BOND
     1     8     7    1
     2     8     9    1
     3     9    10    1
     4    10    11   am
     5    11    12    2
     6    11    16    1
     7    16    17    1
     8    17    18    1
     9    18    19    1
    10    18    20    1
    11    18    21    1
    12    10    13    1
    13    13    14    1
    14    14    15    1
    15    15     1    1
    16     1     2   ar
    17     2     3   ar
    18     3     4   ar
    19     4    22    1
    20    22    23    1
    21    23    24    1
    22    24    25   ar
    23    25    26   ar
    24    26    27   ar
    25    27    28   ar
    26    28    29   ar
    27    29    30    1
    28    30    31    3
    29     4     5   ar
    30     5     6   ar
    31    15     8    1
    32     6     1   ar
    33    29    24   ar
@<TRIPOS>MOLECULE
*****
 31 33 0 0 0
SMALL
GASTEIGER

@<TRIPOS>ATOM
      1 C          63.5323   87.2984   13.2235 C.ar    1  UNL1        0.2204
      2 N          62.9803   88.0648   12.0582 N.ar    1  UNL1       -0.2089
      3 C          63.0768   89.5614   12.0315 C.ar    1  UNL1        0.1402
      4 C          63.7252   90.2917   13.1701 C.ar    1  UNL1        0.1773
      5 C          64.2772   89.5253   14.3354 C.ar    1  UNL1        0.1402
      6 N          64.1807   88.0286   14.3621 N.ar    1  UNL1       -0.2089
      7 C          64.9866   85.7389   15.3338 C.3     1  UNL1        0.0233
      8 C          64.1630   85.0220   14.3054 C.3     1  UNL1        0.0955
      9 C          64.0666   83.5254   14.3320 C.3     1  UNL1        0.1165
     10 N          63.2430   82.8084   13.3036 N.am    1  UNL1       -0.2426
     11 C          63.1465   81.3117   13.3303 C.2     1  UNL1        0.4052
     12 O          63.8736   80.5320   14.3854 O.2     1  UNL1       -0.2262
     13 C          62.5158   83.5881   12.2485 C.3     1  UNL1        0.1182
     14 C          62.6123   85.0847   12.2218 C.3     1  UNL1        0.1152
     15 N          63.4359   85.8017   13.2502 N.pl3   1  UNL1       -0.2764
     16 O          62.3229   80.5948   12.3018 O.3     1  UNL1       -0.4252
     17 C          62.7922   79.2827   11.7468 C.3     1  UNL1        0.3125
     18 C          62.9342   79.1031   10.2644 C.3     1  UNL1        0.4382
     19 F          63.0763   78.9236    8.7820 F       1  UNL1       -0.1663
     20 F          62.9636   80.5923   10.0869 F       1  UNL1       -0.1663
     21 F          62.9048   77.6140   10.4419 F       1  UNL1       -0.1663
     22 O          63.8216   91.7883   13.1433 O.3     1  UNL1       -0.4675
     23 C          65.1227   92.4620   13.4649 C.3     1  UNL1        0.2329
     24 C          66.2869   92.3305   12.5284 C.ar    1  UNL1        0.0339
     25 C          66.0748   92.4428   11.0477 C.ar    1  UNL1        0.0207
     26 C          67.2392   92.3113   10.1112 C.ar    1  UNL1        0.0987
     27 N          68.6156   92.0675   10.6553 N.ar    1  UNL1       -0.2416
     28 C          68.8277   91.9552   12.1360 C.ar    1  UNL1        0.1089
     29 C          67.6634   92.0867   13.0725 C.ar    1  UNL1        0.0871
     30 C          67.8755   91.9744   14.5532 C.1     1  UNL1        0.1018
     31 N          68.0876   91.8621   16.0339 N.1     1  UNL1       -0.1908
@<TRIPOS>BOND
     1     8     7    1
     2     8     9    1
     3     9    10    1
     4    10    11   am
     5    11    12    2
     6    11    16    1
     7    16    17    1
     8    17    18    1
     9    18    19    1
    10    18    20    1
    11    18    21    1
    12    10    13    1
    13    13    14    1
    14    14    15    1
    15    15     1    1
    16     1     2   ar
    17     2     3   ar
    18     3     4   ar
    19     4    22    1
    20    22    23    1
    21    23    24    1
    22    24    25   ar
    23    25    26   ar
    24    26    27   ar
    25    27    28   ar
    26    28    29   ar
    27    29    30    1
    28    30    31    3
    29     4     5   ar
    30     5     6   ar
    31    15     8    1
    32     6     1   ar
    33    29    24   ar
@<TRIPOS>MOLECULE
*****
 31 33 0 0 0
SMALL
GASTEIGER

@<TRIPOS>ATOM
      1 C          63.8362   88.4125   13.3575 C.ar    1  UNL1        0.2204
      2 N          64.7271   89.0602   14.3758 N.ar    1  UNL1       -0.2089
      3 C          65.0809   90.5122   14.2475 C.ar    1  UNL1        0.1402
      4 C          64.5438   91.3165   13.1009 C.ar    1  UNL1        0.1773
      5 C          63.6530   90.6689   12.0827 C.ar    1  UNL1        0.1402
      6 N          63.2992   89.2168   12.2110 N.ar    1  UNL1       -0.2089
      7 C          63.8729   87.0919   16.0510 C.3     1  UNL1        0.0233
      8 C          63.5008   86.3002   14.8326 C.3     1  UNL1        0.0955
      9 C          63.1470   84.8482   14.9609 C.3     1  UNL1        0.1165
     10 N          62.7748   84.0564   13.7424 N.am    1  UNL1       -0.2426
     11 C          62.4210   82.6044   13.8707 C.2     1  UNL1        0.4052
     12 O          62.4394   81.9441   15.2175 O.2     1  UNL1       -0.2262
     13 C          62.7565   84.7167   12.3957 C.3     1  UNL1        0.1182
     14 C          63.1102   86.1687   12.2674 C.3     1  UNL1        0.1152
     15 N          63.4824   86.9604   13.4859 N.pl3   1  UNL1       -0.2764
     16 O          62.0489   81.8126   12.6523 O.3     1  UNL1       -0.4252
     17 C          63.1005   81.0475   11.9049 C.3     1  UNL1        0.3125
     18 C          63.8770   81.7152   10.8089 C.3     1  UNL1        0.4382
     19 F          64.6536   82.3828    9.7129 F       1  UNL1       -0.1663
     20 F          62.9323   81.1456    9.7925 F       1  UNL1       -0.1663
     21 F          64.8218   82.2848   11.8252 F       1  UNL1       -0.1663
     22 O          64.8976   92.7685   12.9727 O.3     1  UNL1       -0.4675
     23 C          66.3307   93.1795   12.8072 C.3     1  UNL1        0.2329
     24 C          66.9525   93.1993   11.4423 C.ar    1  UNL1        0.0339
     25 C          67.6712   91.9874   10.9279 C.ar    1  UNL1        0.0207
     26 C          68.2930   92.0072    9.5629 C.ar    1  UNL1        0.0987
     27 N          68.1961   93.2390    8.7125 N.ar    1  UNL1       -0.2416
     28 C          67.4774   94.4510    9.2269 C.ar    1  UNL1        0.1089
     29 C          66.8556   94.4312   10.5918 C.ar    1  UNL1        0.0871
     30 C          66.1370   95.6431   11.1063 C.1     1  UNL1        0.1018
     31 N          65.4183   96.8551   11.6207 N.1     1  UNL1       -0.1908
@<TRIPOS>BOND
     1     8     7    1
     2     8     9    1
     3     9    10    1
     4    10    11   am
     5    11    12    2
     6    11    16    1
     7    16    17    1
     8    17    18    1
     9    18    19    1
    10    18    20    1
    11    18    21    1
    12    10    13    1
    13    13    14    1
    14    14    15    1
    15    15     1    1
    16     1     2   ar
    17     2     3   ar
    18     3     4   ar
    19     4    22    1
    20    22    23    1
    21    23    24    1
    22    24    25   ar
    23    25    26   ar
    24    26    27   ar
    25    27    28   ar
    26    28    29   ar
    27    29    30    1
    28    30    31    3
    29     4     5   ar
    30     5     6   ar
    31    15     8    1
    32     6     1   ar
    33    29    24   ar
@<TRIPOS>MOLECULE
*****
 31 33 0 0 0
SMALL
GASTEIGER

@<TRIPOS>ATOM
      1 C          63.5522   87.1803   13.4473 C.ar    1  UNL1        0.2204
      2 N          64.2348   87.8011   14.6299 N.ar    1  UNL1       -0.2089
      3 C          64.4127   89.2889   14.6975 C.ar    1  UNL1        0.1402
      4 C          63.9079   90.1561   13.5824 C.ar    1  UNL1        0.1773
      5 C          63.2253   89.5353   12.3998 C.ar    1  UNL1        0.1402
      6 N          63.0475   88.0473   12.3322 N.ar    1  UNL1       -0.2089
      7 C          64.3129   85.4706   15.7922 C.3     1  UNL1        0.0233
      8 C          63.7547   84.8376   14.5522 C.3     1  UNL1        0.0955
      9 C          63.5768   83.3497   14.4846 C.3     1  UNL1        0.1165
     10 N          63.0187   82.7166   13.2445 N.am    1  UNL1       -0.2426
     11 C          62.8408   81.2287   13.1770 C.2     1  UNL1        0.4052
     12 O          63.2212   80.3739   14.3494 O.2     1  UNL1       -0.2262
     13 C          62.6384   83.5714   12.0721 C.3     1  UNL1        0.1182
     14 C          62.8162   85.0593   12.1397 C.3     1  UNL1        0.1152
     15 N          63.3744   85.6923   13.3797 N.pl3   1  UNL1       -0.2764
     16 O          62.2827   80.5956   11.9370 O.3     1  UNL1       -0.4252
     17 C          62.6789   79.1975   11.5652 C.3     1  UNL1        0.3125
     18 C          63.0952   78.8849   10.1584 C.3     1  UNL1        0.4382
     19 F          63.5116   78.5723    8.7517 F       1  UNL1       -0.1663
     20 F          62.9874   80.3384    9.8036 F       1  UNL1       -0.1663
     21 F          63.2030   77.4315   10.5133 F       1  UNL1       -0.1663
     22 O          64.0858   91.6439   13.6500 O.3     1  UNL1       -0.4675
     23 C          65.3477   92.2725   13.1377 C.3     1  UNL1        0.2329
     24 C          66.5772   92.2941   13.9966 C.ar    1  UNL1        0.0339
     25 C          67.9360   92.2643   13.3620 C.ar    1  UNL1        0.0207
     26 C          69.1656   92.2858   14.2211 C.ar    1  UNL1        0.0987
     27 N          69.0362   92.3372   15.7146 N.ar    1  UNL1       -0.2416
     28 C          67.6774   92.3670   16.3491 C.ar    1  UNL1        0.1089
     29 C          66.4479   92.3454   15.4902 C.ar    1  UNL1        0.0871
     30 C          65.0890   92.3752   16.1248 C.1     1  UNL1        0.1018
     31 N          63.7302   92.4050   16.7593 N.1     1  UNL1       -0.1908
@<TRIPOS>BOND
     1     8     7    1
     2     8     9    1
     3     9    10    1
     4    10    11   am
     5    11    12    2
     6    11    16    1
     7    16    17    1
     8    17    18    1
     9    18    19    1
    10    18    20    1
    11    18    21    1
    12    10    13    1
    13    13    14    1
    14    14    15    1
    15    15     1    1
    16     1     2   ar
    17     2     3   ar
    18     3     4   ar
    19     4    22    1
    20    22    23    1
    21    23    24    1
    22    24    25   ar
    23    25    26   ar
    24    26    27   ar
    25    27    28   ar
    26    28    29   ar
    27    29    30    1
    28    30    31    3
    29     4     5   ar
    30     5     6   ar
    31    15     8    1
    32     6     1   ar
    33    29    24   ar
@<TRIPOS>MOLECULE
*****
 31 33 0 0 0
SMALL
GASTEIGER

@<TRIPOS>ATOM
      1 C          63.6366   87.1134   13.5114 C.ar    1  UNL1        0.2204
      2 N          63.2439   87.8414   12.2601 N.ar    1  UNL1       -0.2089
      3 C          63.3212   89.3384   12.2078 C.ar    1  UNL1        0.1402
      4 C          63.7913   90.1076   13.4068 C.ar    1  UNL1        0.1773
      5 C          64.1840   89.3795   14.6581 C.ar    1  UNL1        0.1402
      6 N          64.1066   87.8824   14.7104 N.ar    1  UNL1       -0.2089
      7 C          65.7581   85.5508   14.9458 C.3     1  UNL1        0.0233
      8 C          64.6199   84.8350   14.2809 C.3     1  UNL1        0.0955
      9 C          64.5425   83.3379   14.3331 C.3     1  UNL1        0.1165
     10 N          63.4043   82.6221   13.6682 N.am    1  UNL1       -0.2426
     11 C          63.3269   81.1250   13.7205 C.2     1  UNL1        0.4052
     12 O          64.3877   80.3437   14.4377 O.2     1  UNL1       -0.2262
     13 C          62.3436   83.4033   12.9510 C.3     1  UNL1        0.1182
     14 C          62.4210   84.9004   12.8988 C.3     1  UNL1        0.1152
     15 N          63.5592   85.6162   13.5637 N.pl3   1  UNL1       -0.2764
     16 O          62.1888   80.4091   13.0556 O.3     1  UNL1       -0.4252
     17 C          61.2511   79.5700   13.8720 C.3     1  UNL1        0.3125
     18 C          59.8672   80.0658   14.1702 C.3     1  UNL1        0.4382
     19 F          58.4833   80.5615   14.4684 F       1  UNL1       -0.1663
     20 F          59.3626   78.6532   14.1767 F       1  UNL1       -0.1663
     21 F          60.3719   81.4783   14.1637 F       1  UNL1       -0.1663
     22 O          63.8687   91.6046   13.3545 O.3     1  UNL1       -0.4675
     23 C          65.1533   92.2762   12.9689 C.3     1  UNL1        0.2329
     24 C          66.2840   92.3527   13.9516 C.ar    1  UNL1        0.0339
     25 C          65.9958   92.4784   15.4182 C.ar    1  UNL1        0.0207
     26 C          67.1266   92.5549   16.4009 C.ar    1  UNL1        0.0987
     27 N          68.5454   92.5057   15.9169 N.ar    1  UNL1       -0.2416
     28 C          68.8336   92.3800   14.4502 C.ar    1  UNL1        0.1089
     29 C          67.7029   92.3035   13.4676 C.ar    1  UNL1        0.0871
     30 C          67.9911   92.1779   12.0009 C.1     1  UNL1        0.1018
     31 N          68.2793   92.0522   10.5342 N.1     1  UNL1       -0.1908
@<TRIPOS>BOND
     1     8     7    1
     2     8     9    1
     3     9    10    1
     4    10    11   am
     5    11    12    2
     6    11    16    1
     7    16    17    1
     8    17    18    1
     9    18    19    1
    10    18    20    1
    11    18    21    1
    12    10    13    1
    13    13    14    1
    14    14    15    1
    15    15     1    1
    16     1     2   ar
    17     2     3   ar
    18     3     4   ar
    19     4    22    1
    20    22    23    1
    21    23    24    1
    22    24    25   ar
    23    25    26   ar
    24    26    27   ar
    25    27    28   ar
    26    28    29   ar
    27    29    30    1
    28    30    31    3
    29     4     5   ar
    30     5     6   ar
    31    15     8    1
    32     6     1   ar
    33    29    24   ar
@<TRIPOS>MOLECULE
*****
 31 33 0 0 0
SMALL
GASTEIGER

@<TRIPOS>ATOM
      1 C          63.4594   87.2341   12.9747 C.ar    1  UNL1        0.2204
      2 N          62.8626   88.2117   12.0061 N.ar    1  UNL1       -0.2089
      3 C          62.9768   89.6853   12.2617 C.ar    1  UNL1        0.1402
      4 C          63.6877   90.1814   13.4859 C.ar    1  UNL1        0.1773
      5 C          64.2844   89.2038   14.4544 C.ar    1  UNL1        0.1402
      6 N          64.1703   87.7301   14.1988 N.ar    1  UNL1       -0.2089
      7 C          62.4983   86.2437   10.3109 C.3     1  UNL1        0.0233
      8 C          62.8647   85.2652   11.3872 C.3     1  UNL1        0.0955
      9 C          62.7505   83.7916   11.1316 C.3     1  UNL1        0.1165
     10 N          63.1169   82.8131   12.2079 N.am    1  UNL1       -0.2426
     11 C          63.0028   81.3394   11.9522 C.2     1  UNL1        0.4052
     12 O          62.5222   80.8443   10.6204 O.2     1  UNL1       -0.2262
     13 C          63.5975   83.3083   13.5397 C.3     1  UNL1        0.1182
     14 C          63.7116   84.7819   13.7953 C.3     1  UNL1        0.1152
     15 N          63.3452   85.7604   12.7190 N.pl3   1  UNL1       -0.2764
     16 O          63.3692   80.3610   13.0285 O.3     1  UNL1       -0.4252
     17 C          62.5030   80.2256   14.2456 C.3     1  UNL1        0.3125
     18 C          61.0325   80.5073   14.1547 C.3     1  UNL1        0.4382
     19 F          59.5620   80.7890   14.0638 F       1  UNL1       -0.1663
     20 F          61.2604   81.8786   14.7182 F       1  UNL1       -0.1663
     21 F          60.8046   79.1360   13.5912 F       1  UNL1       -0.1663
     22 O          63.8018   91.6550   13.7414 O.3     1  UNL1       -0.4675
     23 C          64.8559   92.4586   13.0391 C.3     1  UNL1        0.2329
     24 C          66.2988   92.2941   13.4146 C.ar    1  UNL1        0.0339
     25 C          67.3364   92.1175   12.3459 C.ar    1  UNL1        0.0207
     26 C          68.7793   91.9529   12.7214 C.ar    1  UNL1        0.0987
     27 N          69.1846   91.9651   14.1655 N.ar    1  UNL1       -0.2416
     28 C          68.1469   92.1417   15.2342 C.ar    1  UNL1        0.1089
     29 C          66.7041   92.3062   14.8588 C.ar    1  UNL1        0.0871
     30 C          65.6664   92.4828   15.9275 C.1     1  UNL1        0.1018
     31 N          64.6288   92.6595   16.9962 N.1     1  UNL1       -0.1908
@<TRIPOS>BOND
     1     8     7    1
     2     8     9    1
     3     9    10    1
     4    10    11   am
     5    11    12    2
     6    11    16    1
     7    16    17    1
     8    17    18    1
     9    18    19    1
    10    18    20    1
    11    18    21    1
    12    10    13    1
    13    13    14    1
    14    14    15    1
    15    15     1    1
    16     1     2   ar
    17     2     3   ar
    18     3     4   ar
    19     4    22    1
    20    22    23    1
    21    23    24    1
    22    24    25   ar
    23    25    26   ar
    24    26    27   ar
    25    27    28   ar
    26    28    29   ar
    27    29    30    1
    28    30    31    3
    29     4     5   ar
    30     5     6   ar
    31    15     8    1
    32     6     1   ar
    33    29    24   ar
@<TRIPOS>MOLECULE
*****
 31 33 0 0 0
SMALL
GASTEIGER

@<TRIPOS>ATOM
      1 C          63.8486   88.3762   13.3239 C.ar    1  UNL1        0.2204
      2 N          64.7379   89.0377   14.3346 N.ar    1  UNL1       -0.2089
      3 C          65.1026   90.4844   14.1798 C.ar    1  UNL1        0.1402
      4 C          64.5780   91.2696   13.0142 C.ar    1  UNL1        0.1773
      5 C          63.6888   90.6080   12.0035 C.ar    1  UNL1        0.1402
      6 N          63.3241   89.1613   12.1584 N.ar    1  UNL1       -0.2089
      7 C          63.9173   87.0937   16.0351 C.3     1  UNL1        0.0233
      8 C          63.5182   86.2882   14.8343 C.3     1  UNL1        0.0955
      9 C          63.1535   84.8415   14.9891 C.3     1  UNL1        0.1165
     10 N          62.7545   84.0360   13.7883 N.am    1  UNL1       -0.2426
     11 C          62.3898   82.5892   13.9431 C.2     1  UNL1        0.4052
     12 O          62.4241   81.9480   15.2987 O.2     1  UNL1       -0.2262
     13 C          62.7201   84.6772   12.4327 C.3     1  UNL1        0.1182
     14 C          63.0848   86.1239   12.2779 C.3     1  UNL1        0.1152
     15 N          63.4839   86.9294   13.4787 N.pl3   1  UNL1       -0.2764
     16 O          61.9907   81.7837   12.7423 O.3     1  UNL1       -0.4252
     17 C          63.0304   81.0353   11.9619 C.3     1  UNL1        0.3125
     18 C          63.8067   81.7336   10.8850 C.3     1  UNL1        0.4382
     19 F          64.5830   82.4318    9.8081 F       1  UNL1       -0.1663
     20 F          64.7690   82.2497   11.9134 F       1  UNL1       -0.1663
     21 F          62.8443   81.2175    9.8567 F       1  UNL1       -0.1663
     22 O          64.9427   92.7163   12.8594 O.3     1  UNL1       -0.4675
     23 C          66.2969   93.0968   12.3384 C.3     1  UNL1        0.2329
     24 C          66.4547   94.3169   11.4803 C.ar    1  UNL1        0.0339
     25 C          65.9113   95.6357   11.9446 C.ar    1  UNL1        0.0207
     26 C          66.0691   96.8559   11.0864 C.ar    1  UNL1        0.0987
     27 N          66.7703   96.7572    9.7641 N.ar    1  UNL1       -0.2416
     28 C          67.3137   95.4384    9.2999 C.ar    1  UNL1        0.1089
     29 C          67.1559   94.2183   10.1579 C.ar    1  UNL1        0.0871
     30 C          67.6994   92.8995    9.6937 C.1     1  UNL1        0.1018
     31 N          68.2428   91.5807    9.2295 N.1     1  UNL1       -0.1908
@<TRIPOS>BOND
     1     8     7    1
     2     8     9    1
     3     9    10    1
     4    10    11   am
     5    11    12    2
     6    11    16    1
     7    16    17    1
     8    17    18    1
     9    18    19    1
    10    18    20    1
    11    18    21    1
    12    10    13    1
    13    13    14    1
    14    14    15    1
    15    15     1    1
    16     1     2   ar
    17     2     3   ar
    18     3     4   ar
    19     4    22    1
    20    22    23    1
    21    23    24    1
    22    24    25   ar
    23    25    26   ar
    24    26    27   ar
    25    27    28   ar
    26    28    29   ar
    27    29    30    1
    28    30    31    3
    29     4     5   ar
    30     5     6   ar
    31    15     8    1
    32     6     1   ar
    33    29    24   ar
@<TRIPOS>MOLECULE
*****
 31 33 0 0 0
SMALL
GASTEIGER

@<TRIPOS>ATOM
      1 C          61.4954   86.6611    9.7607 C.ar    1  UNL1        0.2204
      2 N          60.4321   86.3428    8.7518 N.ar    1  UNL1       -0.2089
      3 C          59.7421   87.4516    8.0141 C.ar    1  UNL1        0.1402
      4 C          60.1153   88.8789    8.2854 C.ar    1  UNL1        0.1773
      5 C          61.1786   89.1973    9.2944 C.ar    1  UNL1        0.1402
      6 N          61.8687   88.0883   10.0320 N.ar    1  UNL1       -0.2089
      7 C          63.4560   84.8992    8.3283 C.3     1  UNL1        0.0233
      8 C          63.1658   84.6712    9.7822 C.3     1  UNL1        0.0955
      9 C          63.8558   83.5624   10.5199 C.3     1  UNL1        0.1165
     10 N          63.5655   83.3344   11.9738 N.am    1  UNL1       -0.2426
     11 C          64.2556   82.2254   12.7115 C.2     1  UNL1        0.4052
     12 O          65.2358   81.3445   11.9952 O.2     1  UNL1       -0.2262
     13 C          62.5852   84.2153   12.6900 C.3     1  UNL1        0.1182
     14 C          61.8952   85.3242   11.9523 C.3     1  UNL1        0.1152
     15 N          62.1855   85.5522   10.4984 N.pl3   1  UNL1       -0.2764
     16 O          63.9653   81.9975   14.1653 O.3     1  UNL1       -0.4252
     17 C          63.0611   80.8758   14.5827 C.3     1  UNL1        0.3125
     18 C          61.6217   80.8761   14.1608 C.3     1  UNL1        0.4382
     19 F          60.1823   80.8764   13.7389 F       1  UNL1       -0.1663
     20 F          61.8281   79.5683   13.4558 F       1  UNL1       -0.1663
     21 F          61.4154   82.1839   14.8658 F       1  UNL1       -0.1663
     22 O          59.4253   89.9878    7.5477 O.3     1  UNL1       -0.4675
     23 C          59.0876   89.8260    6.0952 C.3     1  UNL1        0.2329
     24 C          59.5976   90.8173    5.0917 C.ar    1  UNL1        0.0339
     25 C          61.0656   90.8949    4.7934 C.ar    1  UNL1        0.0207
     26 C          61.5755   91.8863    3.7897 C.ar    1  UNL1        0.0987
     27 N          60.6175   92.8000    3.0845 N.ar    1  UNL1       -0.2416
     28 C          59.1495   92.7224    3.3829 C.ar    1  UNL1        0.1089
     29 C          58.6396   91.7310    4.3864 C.ar    1  UNL1        0.0871
     30 C          57.1716   91.6534    4.6847 C.1     1  UNL1        0.1018
     31 N          55.7036   91.5758    4.9831 N.1     1  UNL1       -0.1908
@<TRIPOS>BOND
     1     8     7    1
     2     8     9    1
     3     9    10    1
     4    10    11   am
     5    11    12    2
     6    11    16    1
     7    16    17    1
     8    17    18    1
     9    18    19    1
    10    18    20    1
    11    18    21    1
    12    10    13    1
    13    13    14    1
    14    14    15    1
    15    15     1    1
    16     1     2   ar
    17     2     3   ar
    18     3     4   ar
    19     4    22    1
    20    22    23    1
    21    23    24    1
    22    24    25   ar
    23    25    26   ar
    24    26    27   ar
    25    27    28   ar
    26    28    29   ar
    27    29    30    1
    28    30    31    3
    29     4     5   ar
    30     5     6   ar
    31    15     8    1
    32     6     1   ar
    33    29    24   ar
@<TRIPOS>MOLECULE
*****
 31 33 0 0 0
SMALL
GASTEIGER

@<TRIPOS>ATOM
      1 C          62.8699   86.6476   11.9772 C.ar    1  UNL1        0.2204
      2 N          62.2552   87.3155   10.7831 N.ar    1  UNL1       -0.2089
      3 C          62.3206   88.8073   10.6417 C.ar    1  UNL1        0.1402
      4 C          63.0009   89.6314   11.6945 C.ar    1  UNL1        0.1773
      5 C          63.6156   88.9635   12.8887 C.ar    1  UNL1        0.1402
      6 N          63.5501   87.4715   13.0300 N.ar    1  UNL1       -0.2089
      7 C          63.2401   84.8951    9.5706 C.3     1  UNL1        0.0233
      8 C          62.9895   84.2794   10.9153 C.3     1  UNL1        0.0955
      9 C          62.9240   82.7876   11.0566 C.3     1  UNL1        0.1165
     10 N          62.6735   82.1719   12.4013 N.am    1  UNL1       -0.2426
     11 C          62.6080   80.6800   12.5426 C.2     1  UNL1        0.4052
     12 O          62.7931   79.8038   11.3393 O.2     1  UNL1       -0.2262
     13 C          62.4884   83.0481   13.6046 C.3     1  UNL1        0.1182
     14 C          62.5538   84.5400   13.4632 C.3     1  UNL1        0.1152
     15 N          62.8044   85.1556   12.1186 N.pl3   1  UNL1       -0.2764
     16 O          62.3574   80.0643   13.8873 O.3     1  UNL1       -0.4252
     17 C          61.1086   79.2687   14.1270 C.3     1  UNL1        0.3125
     18 C          59.7883   79.9678   14.2623 C.3     1  UNL1        0.4382
     19 F          58.4681   80.6669   14.3976 F       1  UNL1       -0.1663
     20 F          59.0793   78.6511   14.1461 F       1  UNL1       -0.1663
     21 F          60.4974   81.2845   14.3785 F       1  UNL1       -0.1663
     22 O          63.0663   91.1232   11.5531 O.3     1  UNL1       -0.4675
     23 C          64.3950   91.8064   11.4199 C.3     1  UNL1        0.2329
     24 C          65.1393   92.2446   12.6463 C.ar    1  UNL1        0.0339
     25 C          65.0386   91.4441   13.9108 C.ar    1  UNL1        0.0207
     26 C          65.7829   91.8823   15.1372 C.ar    1  UNL1        0.0987
     27 N          66.6280   93.1210   15.0990 N.ar    1  UNL1       -0.2416
     28 C          66.7288   93.9215   13.8345 C.ar    1  UNL1        0.1089
     29 C          65.9845   93.4833   12.6081 C.ar    1  UNL1        0.0871
     30 C          66.0852   94.2838   11.3436 C.1     1  UNL1        0.1018
     31 N          66.1860   95.0843   10.0791 N.1     1  UNL1       -0.1908
@<TRIPOS>BOND
     1     8     7    1
     2     8     9    1
     3     9    10    1
     4    10    11   am
     5    11    12    2
     6    11    16    1
     7    16    17    1
     8    17    18    1
     9    18    19    1
    10    18    20    1
    11    18    21    1
    12    10    13    1
    13    13    14    1
    14    14    15    1
    15    15     1    1
    16     1     2   ar
    17     2     3   ar
    18     3     4   ar
    19     4    22    1
    20    22    23    1
    21    23    24    1
    22    24    25   ar
    23    25    26   ar
    24    26    27   ar
    25    27    28   ar
    26    28    29   ar
    27    29    30    1
    28    30    31    3
    29     4     5   ar
    30     5     6   ar
    31    15     8    1
    32     6     1   ar
    33    29    24   ar
