@<TRIPOS>MOLECULE
*****
 41 44 0 0 0
SMALL
GASTEIGER

@<TRIPOS>ATOM
      1 C          64.5308   89.7239   13.1001 C.ar    1  UNL1        0.1317
      2 N          65.7474   90.1967   13.8391 N.ar    1  UNL1       -0.2294
      3 C          66.1941   91.6231   13.7135 C.ar    1  UNL1        0.0988
      4 C          65.4242   92.5767   12.8487 C.ar    1  UNL1        0.0374
      5 C          64.2076   92.1039   12.1097 C.ar    1  UNL1        0.0029
      6 C          63.7609   90.6775   12.2354 C.ar    1  UNL1        0.0329
      7 N          63.1906   85.4446   13.4772 N.3     1  UNL1       -0.1520
      8 C          62.8378   86.2359   12.2527 C.3     1  UNL1        0.1173
      9 C          63.2845   87.6623   12.1270 C.3     1  UNL1        0.1113
     10 N          64.0840   88.2975   13.2258 N.pl3   1  UNL1       -0.2903
     11 C          64.4368   87.5062   14.4502 C.3     1  UNL1        0.1113
     12 C          63.9901   86.0798   14.5759 C.3     1  UNL1        0.1173
     13 S          62.7438   84.0182   13.6029 S.O2    1  UNL1        0.0649
     14 O          63.4834   83.6757   12.3436 O.2     1  UNL1       -0.1527
     15 O          62.0043   84.3608   14.8621 O.2     1  UNL1       -0.1527
     16 N          60.9569   78.3126   14.1056 N.pl3   1  UNL1       -0.3426
     17 C          61.4036   79.7390   13.9799 C.ar    1  UNL1        0.1255
     18 C          62.7327   80.0570   13.3616 C.ar    1  UNL1        0.0353
     19 C          63.1795   81.4834   13.2360 C.ar    1  UNL1        0.0244
     20 C          62.2971   82.5918   13.7286 C.ar    1  UNL1        0.1414
     21 C          60.9680   82.2739   14.3469 C.ar    1  UNL1        0.1201
     22 N          60.5213   80.8475   14.4726 N.ar    1  UNL1       -0.2282
     23 H          61.5360   77.5851   13.7823 H       1  UNL1        0.1437
     24 H          60.0845   78.1039   14.5115 H       1  UNL1        0.1437
     25 C          62.5442   90.2047   11.4962 C.ar    1  UNL1        0.0219
     26 C          62.6403   89.8518   10.0416 C.ar    1  UNL1        0.0032
     27 C          61.4236   89.3791    9.3024 C.ar    1  UNL1        0.0207
     28 C          60.1108   89.2592   10.0181 C.ar    1  UNL1        0.0989
     29 N          60.0147   89.6121   11.4729 N.ar    1  UNL1       -0.2423
     30 C          61.2314   90.0849   12.2119 C.ar    1  UNL1        0.0989
     31 C          65.8710   94.0031   12.7230 C.3     1  UNL1        0.2841
     32 O          65.8086   94.1540   14.2141 O.3     1  UNL1       -0.3692
     33 H          66.2081   94.9999   14.4705 H       1  UNL1        0.2112
     34 C          66.3177   95.4295   12.5973 C.3     1  UNL1        0.4312
     35 F          66.7644   96.8559   12.4716 F       1  UNL1       -0.1669
     36 F          66.9400   95.3547   13.9601 F       1  UNL1       -0.1669
     37 F          65.9852   95.5760   11.7896 F       1  UNL1       -0.1669
     38 C          65.9334   93.8521   11.2319 C.3     1  UNL1        0.4312
     39 F          65.9958   93.7012    9.7409 F       1  UNL1       -0.1669
     40 F          65.1572   94.2389   11.0517 F       1  UNL1       -0.1669
     41 F          67.2409   93.1574   10.9918 F       1  UNL1       -0.1669
@<TRIPOS>BOND
     1    16    17    1
     2    17    18   ar
     3    18    19   ar
     4    19    20   ar
     5    20    13    1
     6    13    14    2
     7    13    15    2
     8    13     7    1
     9     7     8    1
    10     8     9    1
    11     9    10    1
    12    10     1    1
    13     1     2   ar
    14     2     3   ar
    15     3     4   ar
    16     4    31    1
    17    31    32    1
    18    31    34    1
    19    34    35    1
    20    34    36    1
    21    34    37    1
    22    31    38    1
    23    38    39    1
    24    38    40    1
    25    38    41    1
    26     4     5   ar
    27     5     6   ar
    28     6    25    1
    29    25    26   ar
    30    26    27   ar
    31    27    28   ar
    32    28    29   ar
    33    29    30   ar
    34    10    11    1
    35    11    12    1
    36    20    21   ar
    37    21    22   ar
    38    22    17   ar
    39    12     7    1
    40     6     1   ar
    41    30    25   ar
    42    16    23    1
    43    16    24    1
    44    32    33    1
@<TRIPOS>MOLECULE
*****
 41 44 0 0 0
SMALL
GASTEIGER

@<TRIPOS>ATOM
      1 C          64.5536   89.5826   13.2466 C.ar    1  UNL1        0.1317
      2 N          65.7717   90.0262   14.0011 N.ar    1  UNL1       -0.2294
      3 C          66.2360   91.4494   13.9058 C.ar    1  UNL1        0.0988
      4 C          65.4821   92.4290   13.0561 C.ar    1  UNL1        0.0374
      5 C          64.2640   91.9853   12.3016 C.ar    1  UNL1        0.0029
      6 C          63.7997   90.5622   12.3968 C.ar    1  UNL1        0.0329
      7 N          63.1608   85.3132   13.5323 N.3     1  UNL1       -0.1520
      8 C          62.8560   86.1210   12.3058 C.3     1  UNL1        0.1173
      9 C          63.3203   87.5441   12.2105 C.3     1  UNL1        0.1113
     10 N          64.0893   88.1595   13.3418 N.pl3   1  UNL1       -0.2903
     11 C          64.3941   87.3517   14.5684 C.3     1  UNL1        0.1113
     12 C          63.9298   85.9285   14.6636 C.3     1  UNL1        0.1173
     13 S          62.6965   83.8900   13.6276 S.O2    1  UNL1        0.0649
     14 O          62.0355   84.1934   14.9395 O.2     1  UNL1       -0.1527
     15 O          63.3575   83.5866   12.3157 O.2     1  UNL1       -0.1527
     16 N          60.8394   78.1974   14.0086 N.pl3   1  UNL1       -0.3426
     17 C          61.3037   79.6205   13.9133 C.ar    1  UNL1        0.1255
     18 C          62.5893   79.9447   13.2119 C.ar    1  UNL1        0.0353
     19 C          63.0536   81.3678   13.1166 C.ar    1  UNL1        0.0244
     20 C          62.2322   82.4668   13.7228 C.ar    1  UNL1        0.1414
     21 C          60.9466   82.1427   14.4243 C.ar    1  UNL1        0.1201
     22 N          60.4823   80.7195   14.5195 N.ar    1  UNL1       -0.2282
     23 H          61.3785   77.4760   13.6107 H       1  UNL1        0.1437
     24 H          59.9956   77.9846   14.4690 H       1  UNL1        0.1437
     25 C          62.5815   90.1186   11.6423 C.ar    1  UNL1        0.0219
     26 C          62.6748   89.8224   10.1748 C.ar    1  UNL1        0.0032
     27 C          61.4566   89.3788    9.4202 C.ar    1  UNL1        0.0207
     28 C          60.1451   89.2314   10.1332 C.ar    1  UNL1        0.0989
     29 N          60.0519   89.5276   11.6008 N.ar    1  UNL1       -0.2423
     30 C          61.2700   89.9712   12.3552 C.ar    1  UNL1        0.0989
     31 C          65.9464   93.8521   12.9608 C.3     1  UNL1        0.2841
     32 O          65.3041   93.9712   11.6105 O.3     1  UNL1       -0.3692
     33 H          65.3163   94.8989   11.3274 H       1  UNL1        0.2112
     34 C          66.4106   95.2753   12.8656 C.3     1  UNL1        0.4312
     35 F          66.8749   96.6984   12.7703 F       1  UNL1       -0.1669
     36 F          66.4367   95.1667   11.3697 F       1  UNL1       -0.1669
     37 F          66.4288   95.4414   13.7354 F       1  UNL1       -0.1669
     38 C          66.5886   93.7330   14.3111 C.3     1  UNL1        0.4312
     39 F          67.2308   93.6138   15.6614 F       1  UNL1       -0.1669
     40 F          65.8483   93.8147   14.7904 F       1  UNL1       -0.1669
     41 F          68.0462   93.5547   14.0054 F       1  UNL1       -0.1669
@<TRIPOS>BOND
     1    16    17    1
     2    17    18   ar
     3    18    19   ar
     4    19    20   ar
     5    20    13    1
     6    13    14    2
     7    13    15    2
     8    13     7    1
     9     7     8    1
    10     8     9    1
    11     9    10    1
    12    10     1    1
    13     1     2   ar
    14     2     3   ar
    15     3     4   ar
    16     4    31    1
    17    31    32    1
    18    31    34    1
    19    34    35    1
    20    34    36    1
    21    34    37    1
    22    31    38    1
    23    38    39    1
    24    38    40    1
    25    38    41    1
    26     4     5   ar
    27     5     6   ar
    28     6    25    1
    29    25    26   ar
    30    26    27   ar
    31    27    28   ar
    32    28    29   ar
    33    29    30   ar
    34    10    11    1
    35    11    12    1
    36    20    21   ar
    37    21    22   ar
    38    22    17   ar
    39    12     7    1
    40     6     1   ar
    41    30    25   ar
    42    16    23    1
    43    16    24    1
    44    32    33    1
@<TRIPOS>MOLECULE
*****
 41 44 0 0 0
SMALL
GASTEIGER

@<TRIPOS>ATOM
      1 C          61.0588   93.5993   -0.5541 C.ar    1  UNL1        0.1317
      2 N          60.1529   93.2278   -1.6904 N.ar    1  UNL1       -0.2294
      3 C          60.3253   93.8787   -3.0307 C.ar    1  UNL1        0.0988
      4 C          61.4037   94.9012   -3.2348 C.ar    1  UNL1        0.0374
      5 C          62.3096   95.2727   -2.0985 C.ar    1  UNL1        0.0029
      6 C          62.1372   94.6218   -0.7582 C.ar    1  UNL1        0.0329
      7 N          60.5416   91.6466    3.4670 N.3     1  UNL1       -0.1520
      8 C          59.4270   92.4604    2.8795 C.3     1  UNL1        0.1173
      9 C          59.5994   93.1113    1.5392 C.3     1  UNL1        0.1113
     10 N          60.8864   92.9484    0.7863 N.pl3   1  UNL1       -0.2903
     11 C          62.0011   92.1346    1.3738 C.3     1  UNL1        0.1113
     12 C          61.8287   91.4836    2.7141 C.3     1  UNL1        0.1173
     13 S          60.3692   90.9957    4.8074 S.O2    1  UNL1        0.0649
     14 O          61.8505   90.7752    4.8909 O.2     1  UNL1       -0.1527
     15 O          58.8878   91.2161    4.7239 O.2     1  UNL1       -0.1527
     16 N          59.6795   88.3920   10.1688 N.pl3   1  UNL1       -0.3426
     17 C          59.8519   89.0429    8.8285 C.ar    1  UNL1        0.1255
     18 C          58.9853   88.6285    7.6765 C.ar    1  UNL1        0.0353
     19 C          59.1577   89.2795    6.3361 C.ar    1  UNL1        0.0244
     20 C          60.1968   90.3447    6.1477 C.ar    1  UNL1        0.1414
     21 C          61.0634   90.7591    7.2998 C.ar    1  UNL1        0.1201
     22 N          60.8910   90.1082    8.6401 N.ar    1  UNL1       -0.2282
     23 H          58.9976   87.6928   10.2924 H       1  UNL1        0.1437
     24 H          60.2483   88.6640   10.9250 H       1  UNL1        0.1437
     25 C          63.0432   94.9934    0.3782 C.ar    1  UNL1        0.0219
     26 C          64.3538   94.2855    0.5548 C.ar    1  UNL1        0.0032
     27 C          65.2598   94.6571    1.6911 C.ar    1  UNL1        0.0207
     28 C          64.8551   95.7366    2.6508 C.ar    1  UNL1        0.0989
     29 N          63.5444   96.4445    2.4741 N.ar    1  UNL1       -0.2423
     30 C          62.6385   96.0729    1.3378 C.ar    1  UNL1        0.0989
     31 C          61.5761   95.5521   -4.5752 C.3     1  UNL1        0.2841
     32 O          60.2050   96.1498   -4.4613 O.3     1  UNL1       -0.3692
     33 H          60.0721   96.7923   -5.1757 H       1  UNL1        0.2112
     34 C          61.7485   96.2030   -5.9155 C.3     1  UNL1        0.4312
     35 F          61.9209   96.8539   -7.2559 F       1  UNL1       -0.1669
     36 F          60.8483   95.1733   -6.5314 F       1  UNL1       -0.1669
     37 F          62.2885   96.8533   -5.6511 F       1  UNL1       -0.1669
     38 C          62.9471   94.9544   -4.6891 C.3     1  UNL1        0.4312
     39 F          64.3182   94.3567   -4.8030 F       1  UNL1       -0.1669
     40 F          62.6972   94.1741   -5.0256 F       1  UNL1       -0.1669
     41 F          63.8562   96.0302   -4.1731 F       1  UNL1       -0.1669
@<TRIPOS>BOND
     1    16    17    1
     2    17    18   ar
     3    18    19   ar
     4    19    20   ar
     5    20    13    1
     6    13    14    2
     7    13    15    2
     8    13     7    1
     9     7     8    1
    10     8     9    1
    11     9    10    1
    12    10     1    1
    13     1     2   ar
    14     2     3   ar
    15     3     4   ar
    16     4    31    1
    17    31    32    1
    18    31    34    1
    19    34    35    1
    20    34    36    1
    21    34    37    1
    22    31    38    1
    23    38    39    1
    24    38    40    1
    25    38    41    1
    26     4     5   ar
    27     5     6   ar
    28     6    25    1
    29    25    26   ar
    30    26    27   ar
    31    27    28   ar
    32    28    29   ar
    33    29    30   ar
    34    10    11    1
    35    11    12    1
    36    20    21   ar
    37    21    22   ar
    38    22    17   ar
    39    12     7    1
    40     6     1   ar
    41    30    25   ar
    42    16    23    1
    43    16    24    1
    44    32    33    1
@<TRIPOS>MOLECULE
*****
 41 44 0 0 0
SMALL
GASTEIGER

@<TRIPOS>ATOM
      1 C          59.3434   93.2476    0.9488 C.ar    1  UNL1        0.1317
      2 N          58.0256   93.2944    0.2339 N.ar    1  UNL1       -0.2294
      3 C          57.9082   94.0161   -1.0758 C.ar    1  UNL1        0.0988
      4 C          59.1085   94.6909   -1.6707 C.ar    1  UNL1        0.0374
      5 C          60.4263   94.6441   -0.9557 C.ar    1  UNL1        0.0029
      6 C          60.5437   93.9224    0.3540 C.ar    1  UNL1        0.0329
      7 N          59.6959   91.0827    4.8781 N.3     1  UNL1       -0.1520
      8 C          60.9079   91.2726    4.0150 C.3     1  UNL1        0.1173
      9 C          60.7904   91.9942    2.7053 C.3     1  UNL1        0.1113
     10 N          59.4609   92.5260    2.2586 N.pl3   1  UNL1       -0.2903
     11 C          58.2489   92.3361    3.1216 C.3     1  UNL1        0.1113
     12 C          58.3664   91.6145    4.4314 C.3     1  UNL1        0.1173
     13 S          59.8134   90.3611    6.1878 S.O2    1  UNL1        0.0649
     14 O          61.2728   90.7027    6.2451 O.2     1  UNL1       -0.1527
     15 O          58.3539   90.0195    6.1305 O.2     1  UNL1       -0.1527
     16 N          60.2833   87.4745   11.4268 N.pl3   1  UNL1       -0.3426
     17 C          60.1658   88.1962   10.1171 C.ar    1  UNL1        0.1255
     18 C          60.6525   89.6095    9.9932 C.ar    1  UNL1        0.0353
     19 C          60.5351   90.3312    8.6835 C.ar    1  UNL1        0.0244
     20 C          59.9308   89.6394    7.4976 C.ar    1  UNL1        0.1414
     21 C          59.4441   88.2261    7.6214 C.ar    1  UNL1        0.1201
     22 N          59.5616   87.5044    8.9312 N.ar    1  UNL1       -0.2282
     23 H          60.6799   87.9286   12.2052 H       1  UNL1        0.1437
     24 H          59.9638   86.5469   11.5081 H       1  UNL1        0.1437
     25 C          61.8616   93.8756    1.0690 C.ar    1  UNL1        0.0219
     26 C          62.6896   92.6253    1.0345 C.ar    1  UNL1        0.0032
     27 C          64.0075   92.5785    1.7495 C.ar    1  UNL1        0.0207
     28 C          64.4973   93.7821    2.4988 C.ar    1  UNL1        0.0989
     29 N          63.6693   95.0324    2.5333 N.ar    1  UNL1       -0.2423
     30 C          62.3515   95.0792    1.8184 C.ar    1  UNL1        0.0989
     31 C          58.9910   95.4125   -2.9804 C.3     1  UNL1        0.2841
     32 O          59.3553   96.7005   -2.3034 O.3     1  UNL1       -0.3692
     33 H          59.5096   97.3853   -2.9729 H       1  UNL1        0.2112
     34 C          58.8735   96.1342   -4.2902 C.3     1  UNL1        0.4312
     35 F          58.7560   96.8558   -5.5999 F       1  UNL1       -0.1669
     36 F          57.6352   96.8238   -3.7991 F       1  UNL1       -0.1669
     37 F          59.5908   95.7820   -4.6722 F       1  UNL1       -0.1669
     38 C          58.6267   94.1245   -3.6574 C.3     1  UNL1        0.4312
     39 F          58.2623   92.8365   -4.3344 F       1  UNL1       -0.1669
     40 F          59.4218   93.7398   -3.5926 F       1  UNL1       -0.1669
     41 F          57.1787   94.2963   -4.0092 F       1  UNL1       -0.1669
@<TRIPOS>BOND
     1    16    17    1
     2    17    18   ar
     3    18    19   ar
     4    19    20   ar
     5    20    13    1
     6    13    14    2
     7    13    15    2
     8    13     7    1
     9     7     8    1
    10     8     9    1
    11     9    10    1
    12    10     1    1
    13     1     2   ar
    14     2     3   ar
    15     3     4   ar
    16     4    31    1
    17    31    32    1
    18    31    34    1
    19    34    35    1
    20    34    36    1
    21    34    37    1
    22    31    38    1
    23    38    39    1
    24    38    40    1
    25    38    41    1
    26     4     5   ar
    27     5     6   ar
    28     6    25    1
    29    25    26   ar
    30    26    27   ar
    31    27    28   ar
    32    28    29   ar
    33    29    30   ar
    34    10    11    1
    35    11    12    1
    36    20    21   ar
    37    21    22   ar
    38    22    17   ar
    39    12     7    1
    40     6     1   ar
    41    30    25   ar
    42    16    23    1
    43    16    24    1
    44    32    33    1
