@<TRIPOS>MOLECULE
*****
 20 21 0 0 0
SMALL
GASTEIGER

@<TRIPOS>ATOM
      1 C          63.2033   85.4293   12.5634 C.2     1  UNL1        0.1567
      2 N          63.0696   86.9227   12.5182 N.2     1  UNL1       -0.2468
      3 C          62.1779   87.2736   11.3642 C.3     1  UNL1        0.1720
      4 C          61.6922   88.5905   10.8354 C.3     1  UNL1        0.1653
      5 O          62.1095   89.8670   11.5035 O.3     1  UNL1       -0.3798
      6 C          60.7890   88.6310    9.6384 C.3     1  UNL1        0.1688
      7 O          60.3032   89.9479    9.1095 O.3     1  UNL1       -0.3794
      8 C          60.3716   87.3545    8.9702 C.3     1  UNL1        0.1746
      9 O          60.8575   86.0375    9.4991 O.3     1  UNL1       -0.3402
     10 C          61.7606   85.9971   10.6961 C.3     1  UNL1        0.1938
     11 S          62.3943   84.8573   11.4372 S.3     1  UNL1       -0.0495
     12 H          61.7106   90.6199   11.0400 H       1  UNL1        0.2105
     13 H          60.6633   90.6668    9.6521 H       1  UNL1        0.2105
     14 C          59.4685   87.3949    7.7733 C.3     1  UNL1        0.1693
     15 O          58.1779   86.6305    7.7814 O.3     1  UNL1       -0.3794
     16 H          58.3657   85.6793    7.8110 H       1  UNL1        0.2105
     17 N          64.0052   84.6456   13.5598 N.pl3   1  UNL1       -0.2869
     18 C          64.1737   83.1650   13.3887 C.3     1  UNL1        0.1140
     19 C          63.8146   85.6866   15.9326 C.3     1  UNL1        0.0232
     20 C          64.6386   85.3426   14.7273 C.3     1  UNL1        0.0927
@<TRIPOS>BOND
     1    19    20    1
     2    20    17    1
     3    17    18    1
     4    17     1    1
     5     1     2    2
     6     3     2    1
     7     3     4    1
     8     4     5    1
     9     4     6    1
    10     6     7    1
    11     6     8    1
    12     8    14    1
    13    14    15    1
    14     8     9    1
    15    10     9    1
    16    10    11    1
    17    11     1    1
    18    10     3    1
    19     5    12    1
    20     7    13    1
    21    15    16    1
@<TRIPOS>MOLECULE
*****
 20 21 0 0 0
SMALL
GASTEIGER

@<TRIPOS>ATOM
      1 C          63.1409   85.2872   12.5885 C.2     1  UNL1        0.1567
      2 N          63.0761   86.7851   12.5446 N.2     1  UNL1       -0.2468
      3 C          62.2122   87.1780   11.3830 C.3     1  UNL1        0.1720
      4 C          61.7921   88.5164   10.8519 C.3     1  UNL1        0.1653
      5 O          62.2614   89.7716   11.5259 O.3     1  UNL1       -0.3798
      6 C          60.9028   88.5997    9.6468 C.3     1  UNL1        0.1688
      7 O          60.4828   89.9382    9.1157 O.3     1  UNL1       -0.3794
      8 C          60.4336   87.3445    8.9728 C.3     1  UNL1        0.1746
      9 O          60.8537   86.0060    9.5039 O.3     1  UNL1       -0.3402
     10 C          61.7430   85.9227   10.7090 C.3     1  UNL1        0.1938
     11 S          62.3169   84.7542   11.4540 S.3     1  UNL1       -0.0495
     12 H          61.9016   90.5426   11.0601 H       1  UNL1        0.2105
     13 H          60.8704   90.6392    9.6627 H       1  UNL1        0.2105
     14 C          59.5443   87.4277    7.7677 C.3     1  UNL1        0.1693
     15 O          58.2427   86.6827    7.7432 O.3     1  UNL1       -0.3794
     16 H          58.4162   85.7284    7.7513 H       1  UNL1        0.2105
     17 N          63.8968   84.4663   13.5909 N.pl3   1  UNL1       -0.2869
     18 C          64.8009   85.1381   14.5815 C.3     1  UNL1        0.1140
     19 C          62.5979   82.3399   14.3262 C.3     1  UNL1        0.0232
     20 C          63.7488   82.9738   13.6026 C.3     1  UNL1        0.0927
@<TRIPOS>BOND
     1    19    20    1
     2    20    17    1
     3    17    18    1
     4    17     1    1
     5     1     2    2
     6     3     2    1
     7     3     4    1
     8     4     5    1
     9     4     6    1
    10     6     7    1
    11     6     8    1
    12     8    14    1
    13    14    15    1
    14     8     9    1
    15    10     9    1
    16    10    11    1
    17    11     1    1
    18    10     3    1
    19     5    12    1
    20     7    13    1
    21    15    16    1
@<TRIPOS>MOLECULE
*****
 20 21 0 0 0
SMALL
GASTEIGER

@<TRIPOS>ATOM
      1 C          61.6950   89.2054   10.6905 C.2     1  UNL1        0.1567
      2 N          61.7629   89.1212   12.1865 N.2     1  UNL1       -0.2468
      3 C          62.8330   90.0619   12.6556 C.3     1  UNL1        0.1720
      4 C          63.3437   90.3984   14.0253 C.3     1  UNL1        0.1653
      5 O          62.7503   89.7328   15.2315 O.3     1  UNL1       -0.3798
      6 C          64.4479   91.4005   14.1887 C.3     1  UNL1        0.1688
      7 O          64.9586   91.7370   15.5584 O.3     1  UNL1       -0.3794
      8 C          65.0414   92.0660   12.9825 C.3     1  UNL1        0.1746
      9 O          64.5306   91.7295   11.6129 O.3     1  UNL1       -0.3402
     10 C          63.4265   90.7274   11.4494 C.3     1  UNL1        0.1938
     11 S          62.7231   90.1981   10.2349 S.3     1  UNL1       -0.0495
     12 H          63.1908   90.0606   16.0311 H       1  UNL1        0.2105
     13 H          64.4712   91.2225   16.2206 H       1  UNL1        0.2105
     14 C          66.1455   93.0681   13.1460 C.3     1  UNL1        0.1693
     15 O          66.1466   93.9975   14.3233 O.3     1  UNL1       -0.3794
     16 H          65.3889   94.5998   14.2605 H       1  UNL1        0.2105
     17 N          60.7626   88.4325    9.8053 N.pl3   1  UNL1       -0.2869
     18 C          60.0867   89.1131    8.6521 C.3     1  UNL1        0.1140
     19 C          61.6577   86.0296   10.2232 C.3     1  UNL1        0.0232
     20 C          60.5062   86.9792   10.0734 C.3     1  UNL1        0.0927
@<TRIPOS>BOND
     1    19    20    1
     2    20    17    1
     3    17    18    1
     4    17     1    1
     5     1     2    2
     6     3     2    1
     7     3     4    1
     8     4     5    1
     9     4     6    1
    10     6     7    1
    11     6     8    1
    12     8    14    1
    13    14    15    1
    14     8     9    1
    15    10     9    1
    16    10    11    1
    17    11     1    1
    18    10     3    1
    19     5    12    1
    20     7    13    1
    21    15    16    1
@<TRIPOS>MOLECULE
*****
 20 21 0 0 0
SMALL
GASTEIGER

@<TRIPOS>ATOM
      1 C          62.4260   89.7202   12.2374 C.2     1  UNL1        0.1567
      2 N          62.4599   89.7892   13.7354 N.2     1  UNL1       -0.2468
      3 C          63.5571   90.7322   14.1313 C.3     1  UNL1        0.1720
      4 C          64.0528   91.1894   15.4711 C.3     1  UNL1        0.1653
      5 O          63.4086   90.6756   16.7245 O.3     1  UNL1       -0.3798
      6 C          65.1929   92.1606   15.5577 C.3     1  UNL1        0.1688
      7 O          65.6886   92.6178   16.8975 O.3     1  UNL1       -0.3794
      8 C          65.8371   92.6744   14.3043 C.3     1  UNL1        0.1746
      9 O          65.3413   92.2172   12.9644 O.3     1  UNL1       -0.3402
     10 C          64.2014   91.2461   12.8780 C.3     1  UNL1        0.1938
     11 S          63.5022   90.6206   11.7075 S.3     1  UNL1       -0.0495
     12 H          63.8455   91.0676   17.4967 H       1  UNL1        0.2105
     13 H          65.1674   92.1936   17.5970 H       1  UNL1        0.2105
     14 C          66.9770   93.6455   14.3907 C.3     1  UNL1        0.1693
     15 O          67.8401   93.6816   15.6170 O.3     1  UNL1       -0.3794
     16 H          67.3135   93.9817   16.3743 H       1  UNL1        0.2105
     17 N          61.4816   88.8955   11.4139 N.pl3   1  UNL1       -0.2869
     18 C          62.0110   87.7966   10.5410 C.3     1  UNL1        0.1140
     19 C          59.5083   90.5841   11.4817 C.3     1  UNL1        0.0232
     20 C          60.0077   89.1699   11.4633 C.3     1  UNL1        0.0927
@<TRIPOS>BOND
     1    19    20    1
     2    20    17    1
     3    17    18    1
     4    17     1    1
     5     1     2    2
     6     3     2    1
     7     3     4    1
     8     4     5    1
     9     4     6    1
    10     6     7    1
    11     6     8    1
    12     8    14    1
    13    14    15    1
    14     8     9    1
    15    10     9    1
    16    10    11    1
    17    11     1    1
    18    10     3    1
    19     5    12    1
    20     7    13    1
    21    15    16    1
@<TRIPOS>MOLECULE
*****
 20 21 0 0 0
SMALL
GASTEIGER

@<TRIPOS>ATOM
      1 C          62.0165   89.9806   11.6482 C.2     1  UNL1        0.1567
      2 N          62.7210   91.0510   10.8685 N.2     1  UNL1       -0.2468
      3 C          63.9526   91.4441   11.6292 C.3     1  UNL1        0.1720
      4 C          65.0298   92.4486   11.3452 C.3     1  UNL1        0.1653
      5 O          64.9731   93.2760   10.0953 O.3     1  UNL1       -0.3798
      6 C          66.1637   92.6258   12.3112 C.3     1  UNL1        0.1688
      7 O          67.2408   93.6303   12.0272 O.3     1  UNL1       -0.3794
      8 C          66.2204   91.7984   13.5610 C.3     1  UNL1        0.1746
      9 O          65.1431   90.7939   13.8450 O.3     1  UNL1       -0.3402
     10 C          64.0093   90.6168   12.8791 C.3     1  UNL1        0.1938
     11 S          62.8127   89.7123   12.8908 S.3     1  UNL1       -0.0495
     12 H          65.7392   93.8703   10.0660 H       1  UNL1        0.2105
     13 H          67.0539   94.0757   11.1860 H       1  UNL1        0.2105
     14 C          67.3542   91.9755   14.5269 C.3     1  UNL1        0.1693
     15 O          68.7593   92.1056   14.0184 O.3     1  UNL1       -0.3794
     16 H          69.0304   91.2731   13.6008 H       1  UNL1        0.2105
     17 N          60.7400   89.2984   11.2545 N.pl3   1  UNL1       -0.2869
     18 C          59.4822   89.5551   12.0304 C.3     1  UNL1        0.1140
     19 C          61.9815   87.6661    9.6595 C.3     1  UNL1        0.0232
     20 C          60.7212   88.3594   10.0849 C.3     1  UNL1        0.0927
@<TRIPOS>BOND
     1    19    20    1
     2    20    17    1
     3    17    18    1
     4    17     1    1
     5     1     2    2
     6     3     2    1
     7     3     4    1
     8     4     5    1
     9     4     6    1
    10     6     7    1
    11     6     8    1
    12     8    14    1
    13    14    15    1
    14     8     9    1
    15    10     9    1
    16    10    11    1
    17    11     1    1
    18    10     3    1
    19     5    12    1
    20     7    13    1
    21    15    16    1
@<TRIPOS>MOLECULE
*****
 20 21 0 0 0
SMALL
GASTEIGER

@<TRIPOS>ATOM
      1 C          62.0901   86.9807   10.9732 C.2     1  UNL1        0.1567
      2 N          62.8069   87.0439   12.2893 N.2     1  UNL1       -0.2468
      3 C          63.0995   85.6389   12.7258 C.3     1  UNL1        0.1720
      4 C          63.7846   85.0875   13.9408 C.3     1  UNL1        0.1653
      5 O          64.3205   86.0190   14.9873 O.3     1  UNL1       -0.3798
      6 C          63.9339   83.6044   14.1095 C.3     1  UNL1        0.1688
      7 O          64.6191   83.0530   15.3246 O.3     1  UNL1       -0.3794
      8 C          63.3980   82.6729   13.0630 C.3     1  UNL1        0.1746
      9 O          62.7128   83.2244   11.8479 O.3     1  UNL1       -0.3402
     10 C          62.5636   84.7074   11.6793 C.3     1  UNL1        0.1938
     11 S          61.9398   85.5366   10.5962 S.3     1  UNL1       -0.0495
     12 H          64.7298   85.5037   15.6999 H       1  UNL1        0.2105
     13 H          64.9029   83.7840   15.8954 H       1  UNL1        0.2105
     14 C          63.5473   81.1899   13.2317 C.3     1  UNL1        0.1693
     15 O          63.0710   80.5264   14.4898 O.3     1  UNL1       -0.3794
     16 H          63.6080   80.8298   15.2385 H       1  UNL1        0.2105
     17 N          61.6083   88.1553   10.1743 N.pl3   1  UNL1       -0.2869
     18 C          62.4114   89.4218   10.1439 C.3     1  UNL1        0.1140
     19 C          60.0279   89.0527    8.3178 C.3     1  UNL1        0.0232
     20 C          60.3235   88.0633    9.4058 C.3     1  UNL1        0.0927
@<TRIPOS>BOND
     1    19    20    1
     2    20    17    1
     3    17    18    1
     4    17     1    1
     5     1     2    2
     6     3     2    1
     7     3     4    1
     8     4     5    1
     9     4     6    1
    10     6     7    1
    11     6     8    1
    12     8    14    1
    13    14    15    1
    14     8     9    1
    15    10     9    1
    16    10    11    1
    17    11     1    1
    18    10     3    1
    19     5    12    1
    20     7    13    1
    21    15    16    1
@<TRIPOS>MOLECULE
*****
 20 21 0 0 0
SMALL
GASTEIGER

@<TRIPOS>ATOM
      1 C          63.2011   89.7116   12.7226 C.2     1  UNL1        0.1567
      2 N          63.1748   88.2611   12.3417 N.2     1  UNL1       -0.2468
      3 C          62.2764   88.1109   11.1499 C.3     1  UNL1        0.1720
      4 C          61.8717   86.9133   10.3426 C.3     1  UNL1        0.1653
      5 O          62.4007   85.5555   10.6983 O.3     1  UNL1       -0.3798
      6 C          60.9380   87.0734    9.1796 C.3     1  UNL1        0.1688
      7 O          60.5333   85.8758    8.3723 O.3     1  UNL1       -0.3794
      8 C          60.4090   88.4312    8.8239 C.3     1  UNL1        0.1746
      9 O          60.8138   89.6289    9.6313 O.3     1  UNL1       -0.3402
     10 C          61.7475   89.4688   10.7942 C.3     1  UNL1        0.1938
     11 S          62.3190   90.4580   11.7662 S.3     1  UNL1       -0.0495
     12 H          62.0436   84.8976   10.0814 H       1  UNL1        0.2105
     13 H          60.9609   85.0833    8.7328 H       1  UNL1        0.2105
     14 C          59.4754   88.5914    7.6609 C.3     1  UNL1        0.1693
     15 O          58.4087   87.5674    7.4089 O.3     1  UNL1       -0.3794
     16 H          58.8214   86.7225    7.1705 H       1  UNL1        0.2105
     17 N          63.9739   90.3106   13.8602 N.pl3   1  UNL1       -0.2869
     18 C          63.6756   89.8955   15.2704 C.3     1  UNL1        0.1140
     19 C          66.2483   91.4030   14.4796 C.3     1  UNL1        0.0232
     20 C          65.0449   91.3248   13.5876 C.3     1  UNL1        0.0927
@<TRIPOS>BOND
     1    19    20    1
     2    20    17    1
     3    17    18    1
     4    17     1    1
     5     1     2    2
     6     3     2    1
     7     3     4    1
     8     4     5    1
     9     4     6    1
    10     6     7    1
    11     6     8    1
    12     8    14    1
    13    14    15    1
    14     8     9    1
    15    10     9    1
    16    10    11    1
    17    11     1    1
    18    10     3    1
    19     5    12    1
    20     7    13    1
    21    15    16    1
@<TRIPOS>MOLECULE
*****
 20 21 0 0 0
SMALL
GASTEIGER

@<TRIPOS>ATOM
      1 C          61.3438   88.9442    9.9803 C.2     1  UNL1        0.1567
      2 N          62.3017   90.0742    9.7444 N.2     1  UNL1       -0.2468
      3 C          62.9151   90.4447   11.0621 C.3     1  UNL1        0.1720
      4 C          63.9259   91.4860   11.4412 C.3     1  UNL1        0.1653
      5 O          64.5047   92.3870   10.3908 O.3     1  UNL1       -0.3798
      6 C          64.3581   91.6265   12.8708 C.3     1  UNL1        0.1688
      7 O          65.3689   92.6678   13.2499 O.3     1  UNL1       -0.3794
      8 C          63.7793   90.7255   13.9212 C.3     1  UNL1        0.1746
      9 O          62.7684   89.6841   13.5420 O.3     1  UNL1       -0.3402
     10 C          62.3364   89.5437   12.1125 C.3     1  UNL1        0.1938
     11 S          61.3652   88.6164   11.4439 S.3     1  UNL1       -0.0495
     12 H          65.1374   92.9972   10.8011 H       1  UNL1        0.2105
     13 H          65.6384   93.1600   12.4587 H       1  UNL1        0.2105
     14 C          64.2114   90.8659   15.3507 C.3     1  UNL1        0.1693
     15 O          63.4435   91.7561   16.2823 O.3     1  UNL1       -0.3794
     16 H          63.5320   92.6783   15.9947 H       1  UNL1        0.2105
     17 N          60.5107   88.2619    8.9361 N.pl3   1  UNL1       -0.2869
     18 C          59.7869   89.0756    7.9045 C.3     1  UNL1        0.1140
     19 C          60.0463   86.0507    7.6536 C.3     1  UNL1        0.0232
     20 C          60.4014   86.7660    8.9234 C.3     1  UNL1        0.0927
@<TRIPOS>BOND
     1    19    20    1
     2    20    17    1
     3    17    18    1
     4    17     1    1
     5     1     2    2
     6     3     2    1
     7     3     4    1
     8     4     5    1
     9     4     6    1
    10     6     7    1
    11     6     8    1
    12     8    14    1
    13    14    15    1
    14     8     9    1
    15    10     9    1
    16    10    11    1
    17    11     1    1
    18    10     3    1
    19     5    12    1
    20     7    13    1
    21    15    16    1
@<TRIPOS>MOLECULE
*****
 20 21 0 0 0
SMALL
GASTEIGER

@<TRIPOS>ATOM
      1 C          62.3463   89.8193   11.4161 C.2     1  UNL1        0.1567
      2 N          63.1467   90.0488   12.6637 N.2     1  UNL1       -0.2468
      3 C          64.1243   91.1532   12.3907 C.3     1  UNL1        0.1720
      4 C          65.1679   91.8048   13.2488 C.3     1  UNL1        0.1653
      5 O          65.3641   91.3518   14.6652 O.3     1  UNL1       -0.3798
      6 C          66.0152   92.9096   12.6905 C.3     1  UNL1        0.1688
      7 O          67.0588   93.5612   13.5486 O.3     1  UNL1       -0.3794
      8 C          65.8191   93.3626   11.2740 C.3     1  UNL1        0.1746
      9 O          64.7755   92.7109   10.4159 O.3     1  UNL1       -0.3402
     10 C          63.9282   91.6062   10.9742 C.3     1  UNL1        0.1938
     11 S          62.8292   90.7818   10.3719 S.3     1  UNL1       -0.0495
     12 H          66.0719   91.8724   15.0761 H       1  UNL1        0.2105
     13 H          67.0545   93.1533   14.4287 H       1  UNL1        0.2105
     14 C          66.6664   94.4672   10.7157 C.3     1  UNL1        0.1693
     15 O          67.9453   94.1438   10.0017 O.3     1  UNL1       -0.3794
     16 H          68.5762   93.7561   10.6283 H       1  UNL1        0.2105
     17 N          61.2546   88.8053   11.2430 N.pl3   1  UNL1       -0.2869
     18 C          61.5712   87.4507   10.6821 C.3     1  UNL1        0.1140
     19 C          59.3626   90.5623   11.5317 C.3     1  UNL1        0.0232
     20 C          59.8462   89.1459   11.6309 C.3     1  UNL1        0.0927
@<TRIPOS>BOND
     1    19    20    1
     2    20    17    1
     3    17    18    1
     4    17     1    1
     5     1     2    2
     6     3     2    1
     7     3     4    1
     8     4     5    1
     9     4     6    1
    10     6     7    1
    11     6     8    1
    12     8    14    1
    13    14    15    1
    14     8     9    1
    15    10     9    1
    16    10    11    1
    17    11     1    1
    18    10     3    1
    19     5    12    1
    20     7    13    1
    21    15    16    1
