@<TRIPOS>MOLECULE
*****
 43 46 0 0 0
SMALL
GASTEIGER

@<TRIPOS>ATOM
      1 C          62.7663   89.7771   13.0088 C.3     1  UNL1        0.1484
      2 O          61.5222   89.9827   13.8210 O.3     1  UNL1       -0.3810
      3 H          60.7624   89.6066   13.3495 H       1  UNL1        0.2105
      4 C          62.6903   89.0770   11.6843 C.3     1  UNL1        0.1245
      5 C          60.9271   87.9459   10.1475 C.2     1  UNL1        0.2492
      6 O          59.6753   88.0305    9.3253 O.2     1  UNL1       -0.2699
      7 N          61.4385   89.1615   10.8621 N.am    1  UNL1       -0.2735
      8 C          63.3348   82.4269   12.2687 C.ar    1  UNL1        0.2924
      9 N          63.7659   82.7373   10.8659 N.ar    1  UNL1       -0.1946
     10 C          63.1480   84.0455   10.4698 C.ar    1  UNL1        0.1202
     11 C          63.2206   84.8475    9.2044 C.ar    1  UNL1        0.0225
     12 C          62.4803   86.1476    9.0969 C.ar    1  UNL1        0.0063
     13 C          61.6674   86.6457   10.2550 C.ar    1  UNL1        0.0567
     14 C          61.5948   85.8437   11.5204 C.ar    1  UNL1        0.0437
     15 C          62.3351   84.5436   11.6279 C.ar    1  UNL1        0.1662
     16 O          62.4506   83.5432   12.7396 O.2     1  UNL1       -0.4237
     17 N          63.7204   81.2132   13.0613 N.pl3   1  UNL1       -0.2619
     18 C          65.1023   81.0987   13.6331 C.3     1  UNL1        0.1166
     19 C          61.3758   80.4287   13.8599 C.3     1  UNL1        0.0233
     20 C          62.7239   80.1140   13.2822 C.3     1  UNL1        0.0952
     21 C          60.6982   90.4617   10.7547 C.3     1  UNL1        0.0937
     22 C          59.4074   90.6531   11.4944 C.3     1  UNL1        0.0199
     23 C          58.7999   89.5094   12.2511 C.3     1  UNL1        0.0018
     24 C          58.7242   91.9885   11.4775 C.3     1  UNL1        0.0018
     25 C          64.0867   90.2714   13.5210 C.3     1  UNL1        0.1076
     26 N          64.8253   91.3446   12.7776 N.am    1  UNL1       -0.2695
     27 C          65.4453   92.4860   13.5278 C.2     1  UNL1        0.4020
     28 O          65.3267   92.5542   15.0216 O.2     1  UNL1       -0.2264
     29 H          64.9032   91.2999   11.7972 H       1  UNL1        0.1528
     30 O          66.1840   93.5592   12.7843 O.3     1  UNL1       -0.4291
     31 C          65.8278   93.8658   11.3599 C.3     1  UNL1        0.2447
     32 C          66.8148   93.5911   10.2643 C.ar    1  UNL1        0.0714
     33 C          67.0881   94.4732    9.0822 C.ar    1  UNL1        0.1053
     34 N          68.1440   93.8134    8.2457 N.ar    1  UNL1       -0.2350
     35 C          68.5233   92.5235    8.9107 C.ar    1  UNL1        0.1343
     36 S          67.7018   92.3861   10.1583 S.2     1  UNL1       -0.0652
     37 C          64.6683   89.6927   14.7767 C.3     1  UNL1        0.0501
     38 C          64.1483   88.3924   15.3141 C.ar    1  UNL1       -0.0013
     39 C          64.5357   87.1008   14.6572 C.ar    1  UNL1       -0.0011
     40 C          64.0157   85.8005   15.1947 C.ar    1  UNL1        0.0204
     41 C          63.1084   85.7918   16.3891 C.ar    1  UNL1        0.0989
     42 N          62.7211   87.0834   17.0460 N.ar    1  UNL1       -0.2426
     43 C          63.2410   88.3837   16.5086 C.ar    1  UNL1        0.0946
@<TRIPOS>BOND
     1    19    20    1
     2    20    17    1
     3    17    18    1
     4    17     8    1
     5     8     9   ar
     6     9    10   ar
     7    10    11   ar
     8    11    12   ar
     9    12    13   ar
    10    13     5    1
    11     5     6    2
    12     5     7   am
    13     7    21    1
    14    21    22    1
    15    22    23    1
    16    22    24    1
    17     7     4    1
    18     4     1    1
    19     1     2    1
    20     1    25    1
    21    25    37    1
    22    37    38    1
    23    38    39   ar
    24    39    40   ar
    25    40    41   ar
    26    41    42   ar
    27    42    43   ar
    28    25    26    1
    29    26    27   am
    30    27    28    2
    31    27    30    1
    32    30    31    1
    33    31    32    1
    34    32    33   ar
    35    33    34   ar
    36    34    35   ar
    37    35    36   ar
    38    13    14   ar
    39    14    15   ar
    40    15    16   ar
    41    16     8   ar
    42    15    10   ar
    43    43    38   ar
    44    36    32   ar
    45     2     3    1
    46    26    29    1
@<TRIPOS>MOLECULE
*****
 43 46 0 0 0
SMALL
GASTEIGER

@<TRIPOS>ATOM
      1 C          62.5826   86.2192    9.6141 C.3     1  UNL1        0.1484
      2 O          62.9361   85.7527    8.2331 O.3     1  UNL1       -0.3810
      3 H          63.0825   86.5213    7.6597 H       1  UNL1        0.2105
      4 C          62.5054   87.6871    9.9132 C.3     1  UNL1        0.1245
      5 C          61.0718   89.7829   10.4629 C.2     1  UNL1        0.2492
      6 O          59.7393   90.4705   10.5061 O.2     1  UNL1       -0.2699
      7 N          61.1730   88.3747    9.9564 N.am    1  UNL1       -0.2735
      8 C          65.8343   92.1018   14.0262 C.ar    1  UNL1        0.2924
      9 N          65.9241   92.5422   12.5951 N.ar    1  UNL1       -0.1946
     10 C          64.7654   91.9450   11.8528 C.ar    1  UNL1        0.1202
     11 C          64.3401   92.0337   10.4172 C.ar    1  UNL1        0.0225
     12 C          63.1089   91.3130    9.9539 C.ar    1  UNL1        0.0063
     13 C          62.3030   90.5036   10.9263 C.ar    1  UNL1        0.0567
     14 C          62.7284   90.4149   12.3619 C.ar    1  UNL1        0.0437
     15 C          63.9596   91.1356   12.8252 C.ar    1  UNL1        0.1662
     16 O          64.6202   91.2325   14.1684 O.2     1  UNL1       -0.4237
     17 N          66.7908   92.4667   15.1226 N.pl3   1  UNL1       -0.2619
     18 C          66.2900   92.6501   16.5246 C.3     1  UNL1        0.1166
     19 C          69.1076   93.4758   15.7261 C.3     1  UNL1        0.0233
     20 C          68.2481   92.6482   14.8171 C.3     1  UNL1        0.0952
     21 C          59.9417   87.6539    9.4930 C.3     1  UNL1        0.0937
     22 C          59.6434   87.5452    8.0270 C.3     1  UNL1        0.0199
     23 C          59.6522   86.2030    7.3574 C.3     1  UNL1        0.0018
     24 C          59.3363   88.7787    7.2306 C.3     1  UNL1        0.0018
     25 C          62.3061   85.2178   10.6962 C.3     1  UNL1        0.1076
     26 N          62.3540   83.7502   10.3899 N.am    1  UNL1       -0.2695
     27 C          63.6691   83.0287   10.3795 C.2     1  UNL1        0.4020
     28 O          64.9362   83.7748   10.6755 O.2     1  UNL1       -0.2264
     29 H          61.5224   83.2604   10.1957 H       1  UNL1        0.1528
     30 O          63.7170   81.5610   10.0733 O.3     1  UNL1       -0.4291
     31 C          63.0904   80.5772   11.0164 C.3     1  UNL1        0.2447
     32 C          62.8985   80.9392   12.4593 C.ar    1  UNL1        0.0714
     33 C          63.9866   81.1112   13.4775 C.ar    1  UNL1        0.1053
     34 N          63.3454   81.4711   14.7849 N.ar    1  UNL1       -0.2350
     35 C          61.8610   81.5217   14.5748 C.ar    1  UNL1        0.1343
     36 S          61.5849   81.1929   13.1375 S.2     1  UNL1       -0.0652
     37 C          61.9818   85.6841   12.0845 C.3     1  UNL1        0.0501
     38 C          63.0760   85.8376   13.0989 C.ar    1  UNL1       -0.0013
     39 C          63.5209   87.2065   13.5208 C.ar    1  UNL1       -0.0011
     40 C          64.6152   87.3601   14.5352 C.ar    1  UNL1        0.0204
     41 C          65.2645   86.1447   15.1277 C.ar    1  UNL1        0.0989
     42 N          64.8197   84.7758   14.7058 N.ar    1  UNL1       -0.2426
     43 C          63.7254   84.6222   13.6914 C.ar    1  UNL1        0.0946
@<TRIPOS>BOND
     1    19    20    1
     2    20    17    1
     3    17    18    1
     4    17     8    1
     5     8     9   ar
     6     9    10   ar
     7    10    11   ar
     8    11    12   ar
     9    12    13   ar
    10    13     5    1
    11     5     6    2
    12     5     7   am
    13     7    21    1
    14    21    22    1
    15    22    23    1
    16    22    24    1
    17     7     4    1
    18     4     1    1
    19     1     2    1
    20     1    25    1
    21    25    37    1
    22    37    38    1
    23    38    39   ar
    24    39    40   ar
    25    40    41   ar
    26    41    42   ar
    27    42    43   ar
    28    25    26    1
    29    26    27   am
    30    27    28    2
    31    27    30    1
    32    30    31    1
    33    31    32    1
    34    32    33   ar
    35    33    34   ar
    36    34    35   ar
    37    35    36   ar
    38    13    14   ar
    39    14    15   ar
    40    15    16   ar
    41    16     8   ar
    42    15    10   ar
    43    43    38   ar
    44    36    32   ar
    45     2     3    1
    46    26    29    1
@<TRIPOS>MOLECULE
*****
 43 46 0 0 0
SMALL
GASTEIGER

@<TRIPOS>ATOM
      1 C          61.0479   89.2819   11.0016 C.3     1  UNL1        0.1484
      2 O          60.3014   90.4019   11.6637 O.3     1  UNL1       -0.3810
      3 H          60.7466   90.6425   12.4912 H       1  UNL1        0.2105
      4 C          62.2822   88.7207   11.6433 C.3     1  UNL1        0.1245
      5 C          63.9431   88.9706   13.6253 C.2     1  UNL1        0.2492
      6 O          64.7890   89.8378   14.5099 O.2     1  UNL1       -0.2699
      7 N          63.1280   89.5879   12.5279 N.am    1  UNL1       -0.2735
      8 C          63.1030   82.6893   12.8535 C.ar    1  UNL1        0.2924
      9 N          63.6975   83.0270   14.1886 N.ar    1  UNL1       -0.1946
     10 C          63.8511   84.5172   14.2641 C.ar    1  UNL1        0.1202
     11 C          64.3813   85.4183   15.3397 C.ar    1  UNL1        0.0225
     12 C          64.4119   86.9027   15.1267 C.ar    1  UNL1        0.0063
     13 C          63.9124   87.4861   13.8382 C.ar    1  UNL1        0.0567
     14 C          63.3823   86.5850   12.7627 C.ar    1  UNL1        0.0437
     15 C          63.3516   85.1005   12.9756 C.ar    1  UNL1        0.1662
     16 O          62.8893   83.9708   12.1038 O.2     1  UNL1       -0.4237
     17 N          62.7792   81.3119   12.3554 N.pl3   1  UNL1       -0.2619
     18 C          63.0647   80.9436   10.9297 C.3     1  UNL1        0.1166
     19 C          60.9506   80.6581   14.0812 C.3     1  UNL1        0.0233
     20 C          62.1700   80.3029   13.2831 C.3     1  UNL1        0.0952
     21 C          63.1587   91.0725   12.3150 C.3     1  UNL1        0.0937
     22 C          63.9645   91.6523   11.1905 C.3     1  UNL1        0.0199
     23 C          65.2861   92.3033   11.4727 C.3     1  UNL1        0.0018
     24 C          63.4487   91.5812    9.7837 C.3     1  UNL1        0.0018
     25 C          60.5602   88.7232    9.6978 C.3     1  UNL1        0.1076
     26 N          60.4420   89.6145    8.4971 N.am    1  UNL1       -0.2695
     27 C          59.3702   89.3624    7.4784 C.2     1  UNL1        0.4020
     28 O          58.4166   88.2189    7.6603 O.2     1  UNL1       -0.2264
     29 H          61.0678   90.3651    8.3777 H       1  UNL1        0.1528
     30 O          59.2520   90.2538    6.2778 O.3     1  UNL1       -0.4291
     31 C          60.4593   90.5416    5.4355 C.3     1  UNL1        0.2447
     32 C          60.3790   91.5522    4.3300 C.ar    1  UNL1        0.0714
     33 C          59.1607   92.3343    3.9372 C.ar    1  UNL1        0.1053
     34 N          59.5315   93.2237    2.7877 N.ar    1  UNL1       -0.2350
     35 C          60.9790   92.9913    2.4699 C.ar    1  UNL1        0.1343
     36 S          61.5027   91.9582    3.4232 S.2     1  UNL1       -0.0652
     37 C          60.1908   87.2731    9.5946 C.3     1  UNL1        0.0501
     38 C          60.9752   86.3612    8.6984 C.ar    1  UNL1       -0.0013
     39 C          62.4049   86.0412    9.0200 C.ar    1  UNL1       -0.0011
     40 C          63.1893   85.1293    8.1238 C.ar    1  UNL1        0.0204
     41 C          62.5439   84.5374    6.9060 C.ar    1  UNL1        0.0989
     42 N          61.1142   84.8574    6.5843 N.ar    1  UNL1       -0.2426
     43 C          60.3298   85.7692    7.4806 C.ar    1  UNL1        0.0946
@<TRIPOS>BOND
     1    19    20    1
     2    20    17    1
     3    17    18    1
     4    17     8    1
     5     8     9   ar
     6     9    10   ar
     7    10    11   ar
     8    11    12   ar
     9    12    13   ar
    10    13     5    1
    11     5     6    2
    12     5     7   am
    13     7    21    1
    14    21    22    1
    15    22    23    1
    16    22    24    1
    17     7     4    1
    18     4     1    1
    19     1     2    1
    20     1    25    1
    21    25    37    1
    22    37    38    1
    23    38    39   ar
    24    39    40   ar
    25    40    41   ar
    26    41    42   ar
    27    42    43   ar
    28    25    26    1
    29    26    27   am
    30    27    28    2
    31    27    30    1
    32    30    31    1
    33    31    32    1
    34    32    33   ar
    35    33    34   ar
    36    34    35   ar
    37    35    36   ar
    38    13    14   ar
    39    14    15   ar
    40    15    16   ar
    41    16     8   ar
    42    15    10   ar
    43    43    38   ar
    44    36    32   ar
    45     2     3    1
    46    26    29    1
@<TRIPOS>MOLECULE
*****
 43 46 0 0 0
SMALL
GASTEIGER

@<TRIPOS>ATOM
      1 C          62.6676   85.8571   10.3248 C.3     1  UNL1        0.1484
      2 O          62.8905   85.6644    8.8540 O.3     1  UNL1       -0.3810
      3 H          62.7837   86.5132    8.3969 H       1  UNL1        0.2105
      4 C          62.3363   87.2182   10.8612 C.3     1  UNL1        0.1245
      5 C          61.1126   89.4567   10.3696 C.2     1  UNL1        0.2492
      6 O          59.9145   90.1957    9.8515 O.2     1  UNL1       -0.2699
      7 N          61.1381   87.9572   10.3431 N.am    1  UNL1       -0.2735
      8 C          65.6128   91.8395   14.2203 C.ar    1  UNL1        0.2924
      9 N          65.7277   92.3575   12.8173 N.ar    1  UNL1       -0.1946
     10 C          64.6304   91.7385   12.0032 C.ar    1  UNL1        0.1202
     11 C          64.2510   91.8785   10.5588 C.ar    1  UNL1        0.0225
     12 C          63.0784   91.1179   10.0143 C.ar    1  UNL1        0.0063
     13 C          62.2853   90.2173   10.9142 C.ar    1  UNL1        0.0567
     14 C          62.6647   90.0773   12.3586 C.ar    1  UNL1        0.0437
     15 C          63.8372   90.8379   12.9031 C.ar    1  UNL1        0.1662
     16 O          64.4444   90.9004   14.2733 O.2     1  UNL1       -0.4237
     17 N          66.5088   92.1978   15.3686 N.pl3   1  UNL1       -0.2619
     18 C          65.9159   92.5612   16.6976 C.3     1  UNL1        0.1166
     19 C          68.8199   93.3365   15.7039 C.3     1  UNL1        0.0233
     20 C          67.9979   92.1928   15.1880 C.3     1  UNL1        0.0952
     21 C          59.9655   87.1966    9.7985 C.3     1  UNL1        0.0937
     22 C          59.7642   87.0894    8.3159 C.3     1  UNL1        0.0199
     23 C          60.0897   85.8091    7.6055 C.3     1  UNL1        0.0018
     24 C          59.2373   88.2626    7.5438 C.3     1  UNL1        0.0018
     25 C          62.7761   84.6887   11.2593 C.3     1  UNL1        0.1076
     26 N          63.3109   84.8853   12.6469 N.am    1  UNL1       -0.2695
     27 C          64.5633   84.1795   13.0750 C.2     1  UNL1        0.4020
     28 O          65.2809   83.2771   12.1155 O.2     1  UNL1       -0.2264
     29 H          62.8399   85.4776   13.2766 H       1  UNL1        0.1528
     30 O          65.0981   84.3761   14.4626 O.3     1  UNL1       -0.4291
     31 C          64.1518   84.5423   15.6145 C.3     1  UNL1        0.2447
     32 C          63.7341   85.9156   16.0498 C.ar    1  UNL1        0.0714
     33 C          64.0411   87.1984   15.3355 C.ar    1  UNL1        0.1053
     34 N          63.4328   88.3229   16.1200 N.ar    1  UNL1       -0.2350
     35 C          62.7498   87.7351   17.3192 C.ar    1  UNL1        0.1343
     36 S          62.9360   86.2472   17.2758 S.2     1  UNL1       -0.0652
     37 C          62.3498   83.3239   10.8062 C.3     1  UNL1        0.0501
     38 C          62.3149   82.1862   11.7831 C.ar    1  UNL1       -0.0013
     39 C          61.7850   82.4040   13.1694 C.ar    1  UNL1       -0.0011
     40 C          61.7501   81.2663   14.1463 C.ar    1  UNL1        0.0204
     41 C          62.2452   79.9108   13.7371 C.ar    1  UNL1        0.0989
     42 N          62.7751   79.6930   12.3508 N.ar    1  UNL1       -0.2426
     43 C          62.8100   80.8307   11.3739 C.ar    1  UNL1        0.0946
@<TRIPOS>BOND
     1    19    20    1
     2    20    17    1
     3    17    18    1
     4    17     8    1
     5     8     9   ar
     6     9    10   ar
     7    10    11   ar
     8    11    12   ar
     9    12    13   ar
    10    13     5    1
    11     5     6    2
    12     5     7   am
    13     7    21    1
    14    21    22    1
    15    22    23    1
    16    22    24    1
    17     7     4    1
    18     4     1    1
    19     1     2    1
    20     1    25    1
    21    25    37    1
    22    37    38    1
    23    38    39   ar
    24    39    40   ar
    25    40    41   ar
    26    41    42   ar
    27    42    43   ar
    28    25    26    1
    29    26    27   am
    30    27    28    2
    31    27    30    1
    32    30    31    1
    33    31    32    1
    34    32    33   ar
    35    33    34   ar
    36    34    35   ar
    37    35    36   ar
    38    13    14   ar
    39    14    15   ar
    40    15    16   ar
    41    16     8   ar
    42    15    10   ar
    43    43    38   ar
    44    36    32   ar
    45     2     3    1
    46    26    29    1
@<TRIPOS>MOLECULE
*****
 43 46 0 0 0
SMALL
GASTEIGER

@<TRIPOS>ATOM
      1 C          62.1887   85.7541   11.1900 C.3     1  UNL1        0.1484
      2 O          60.9945   86.2014   11.9797 O.3     1  UNL1       -0.3810
      3 H          60.5509   86.9265   11.5124 H       1  UNL1        0.2105
      4 C          62.5214   86.4234    9.8895 C.3     1  UNL1        0.1245
      5 C          61.0179   88.4165    9.1704 C.2     1  UNL1        0.2492
      6 O          59.9214   88.9727    8.3111 O.2     1  UNL1       -0.2699
      7 N          61.4249   86.9796    9.0302 N.am    1  UNL1       -0.2735
      8 C          64.9732   92.5718   11.9714 C.ar    1  UNL1        0.2924
      9 N          63.9576   92.0168   12.9255 N.ar    1  UNL1       -0.1946
     10 C          63.0860   91.0585   12.1692 C.ar    1  UNL1        0.1202
     11 C          61.9196   90.2151   12.5912 C.ar    1  UNL1        0.0225
     12 C          61.2303   89.3344   11.5917 C.ar    1  UNL1        0.0063
     13 C          61.7073   89.2972   10.1700 C.ar    1  UNL1        0.0567
     14 C          62.8736   90.1407    9.7479 C.ar    1  UNL1        0.0437
     15 C          63.5630   91.0213   10.7475 C.ar    1  UNL1        0.1662
     16 O          64.7293   91.9566   10.6253 O.2     1  UNL1       -0.4237
     17 N          66.0446   93.5673   12.3048 N.pl3   1  UNL1       -0.2619
     18 C          66.6084   93.6254   13.6936 C.3     1  UNL1        0.1166
     19 C          65.5993   95.4161   10.5347 C.3     1  UNL1        0.0233
     20 C          66.5522   94.5045   11.2495 C.3     1  UNL1        0.0952
     21 C          60.7355   86.0989    8.0306 C.3     1  UNL1        0.0937
     22 C          61.5309   85.1187    7.2202 C.3     1  UNL1        0.0199
     23 C          60.8879   84.3980    6.0726 C.3     1  UNL1        0.0018
     24 C          62.9692   84.8591    7.5577 C.3     1  UNL1        0.0018
     25 C          63.0502   84.6375   11.7008 C.3     1  UNL1        0.1076
     26 N          63.8918   84.8397   12.9259 N.am    1  UNL1       -0.2695
     27 C          63.2470   84.8863   14.2794 C.2     1  UNL1        0.4020
     28 O          61.7607   84.7307   14.4079 O.2     1  UNL1       -0.2264
     29 H          64.8673   84.9418   12.8416 H       1  UNL1        0.1528
     30 O          64.0886   85.0885   15.5046 O.3     1  UNL1       -0.4291
     31 C          63.6316   86.0268   16.5819 C.3     1  UNL1        0.2447
     32 C          63.5962   87.5041   16.3245 C.ar    1  UNL1        0.0714
     33 C          62.9780   88.5399   17.2161 C.ar    1  UNL1        0.1053
     34 N          63.1724   89.8810   16.5729 N.ar    1  UNL1       -0.2350
     35 C          63.9109   89.6740   15.2837 C.ar    1  UNL1        0.1343
     36 S          64.1728   88.2050   15.1302 S.2     1  UNL1       -0.0652
     37 C          63.0701   83.3186   10.9865 C.3     1  UNL1        0.0501
     38 C          62.7629   82.0556   11.7350 C.ar    1  UNL1       -0.0013
     39 C          62.1376   82.1239   13.0967 C.ar    1  UNL1       -0.0011
     40 C          61.8303   80.8608   13.8452 C.ar    1  UNL1        0.0204
     41 C          62.1484   79.5294   13.2319 C.ar    1  UNL1        0.0989
     42 N          62.7736   79.4610   11.8702 N.ar    1  UNL1       -0.2426
     43 C          63.0809   80.7241   11.1217 C.ar    1  UNL1        0.0946
@<TRIPOS>BOND
     1    19    20    1
     2    20    17    1
     3    17    18    1
     4    17     8    1
     5     8     9   ar
     6     9    10   ar
     7    10    11   ar
     8    11    12   ar
     9    12    13   ar
    10    13     5    1
    11     5     6    2
    12     5     7   am
    13     7    21    1
    14    21    22    1
    15    22    23    1
    16    22    24    1
    17     7     4    1
    18     4     1    1
    19     1     2    1
    20     1    25    1
    21    25    37    1
    22    37    38    1
    23    38    39   ar
    24    39    40   ar
    25    40    41   ar
    26    41    42   ar
    27    42    43   ar
    28    25    26    1
    29    26    27   am
    30    27    28    2
    31    27    30    1
    32    30    31    1
    33    31    32    1
    34    32    33   ar
    35    33    34   ar
    36    34    35   ar
    37    35    36   ar
    38    13    14   ar
    39    14    15   ar
    40    15    16   ar
    41    16     8   ar
    42    15    10   ar
    43    43    38   ar
    44    36    32   ar
    45     2     3    1
    46    26    29    1
@<TRIPOS>MOLECULE
*****
 43 46 0 0 0
SMALL
GASTEIGER

@<TRIPOS>ATOM
      1 C          67.1169   92.1090   12.7302 C.3     1  UNL1        0.1484
      2 O          68.4325   92.0126   12.0162 O.3     1  UNL1       -0.3810
      3 H          68.9692   91.3129   12.4203 H       1  UNL1        0.2105
      4 C          66.8186   91.1929   13.8799 C.3     1  UNL1        0.1245
      5 C          64.7495   90.9515   15.4325 C.2     1  UNL1        0.2492
      6 O          63.9286   91.4415   16.5884 O.2     1  UNL1       -0.2699
      7 N          65.9976   91.6828   15.0357 N.am    1  UNL1       -0.2735
      8 C          63.6904   84.9187   13.6326 C.ar    1  UNL1        0.2924
      9 N          63.1686   85.9124   12.6375 N.ar    1  UNL1       -0.1946
     10 C          63.4680   87.2879   13.1553 C.ar    1  UNL1        0.1202
     11 C          63.1883   88.6526   12.5992 C.ar    1  UNL1        0.0225
     12 C          63.6155   89.8738   13.3583 C.ar    1  UNL1        0.0063
     13 C          64.3224   89.7303   14.6735 C.ar    1  UNL1        0.0567
     14 C          64.6020   88.3656   15.2296 C.ar    1  UNL1        0.0437
     15 C          64.1749   87.1444   14.4705 C.ar    1  UNL1        0.1662
     16 O          64.3123   85.6801   14.7655 O.2     1  UNL1       -0.4237
     17 N          63.6052   83.4257   13.5155 N.pl3   1  UNL1       -0.2619
     18 C          64.2831   82.7228   12.3769 C.3     1  UNL1        0.1166
     19 C          61.7585   81.6945   14.1008 C.3     1  UNL1        0.0233
     20 C          62.8422   82.6355   14.5369 C.3     1  UNL1        0.0952
     21 C          66.4248   92.9041   15.7948 C.3     1  UNL1        0.0937
     22 C          67.8770   93.1313   16.0941 C.3     1  UNL1        0.0199
     23 C          68.7088   92.0194   16.6612 C.3     1  UNL1        0.0018
     24 C          68.4973   94.4705   15.8262 C.3     1  UNL1        0.0018
     25 C          66.0996   93.1215   12.2945 C.3     1  UNL1        0.1076
     26 N          64.6840   92.6986   12.0350 N.am    1  UNL1       -0.2695
     27 C          64.3168   92.0728   10.7222 C.2     1  UNL1        0.4020
     28 O          65.3653   91.8699    9.6688 O.2     1  UNL1       -0.2264
     29 H          63.9958   92.8318   12.7264 H       1  UNL1        0.1528
     30 O          62.9012   91.6499   10.4627 O.3     1  UNL1       -0.4291
     31 C          62.6231   90.3919    9.6947 C.3     1  UNL1        0.2447
     32 C          61.4433   89.5386   10.0550 C.ar    1  UNL1        0.0714
     33 C          60.3673   89.8918   11.0387 C.ar    1  UNL1        0.1053
     34 N          59.3913   88.7537   11.0866 N.ar    1  UNL1       -0.2350
     35 C          59.8640   87.6971   10.1325 C.ar    1  UNL1        0.1343
     36 S          61.1323   88.1823    9.4949 S.2     1  UNL1       -0.0652
     37 C          66.4978   94.5569   12.1184 C.3     1  UNL1        0.0501
     38 C          66.4583   95.1845   10.7565 C.ar    1  UNL1       -0.0013
     39 C          67.4488   94.7683    9.7098 C.ar    1  UNL1       -0.0011
     40 C          67.4092   95.3959    8.3480 C.ar    1  UNL1        0.0204
     41 C          66.3792   96.4397    8.0329 C.ar    1  UNL1        0.0989
     42 N          65.3887   96.8560    9.0796 N.ar    1  UNL1       -0.2426
     43 C          65.4282   96.2284   10.4414 C.ar    1  UNL1        0.0946
@<TRIPOS>BOND
     1    19    20    1
     2    20    17    1
     3    17    18    1
     4    17     8    1
     5     8     9   ar
     6     9    10   ar
     7    10    11   ar
     8    11    12   ar
     9    12    13   ar
    10    13     5    1
    11     5     6    2
    12     5     7   am
    13     7    21    1
    14    21    22    1
    15    22    23    1
    16    22    24    1
    17     7     4    1
    18     4     1    1
    19     1     2    1
    20     1    25    1
    21    25    37    1
    22    37    38    1
    23    38    39   ar
    24    39    40   ar
    25    40    41   ar
    26    41    42   ar
    27    42    43   ar
    28    25    26    1
    29    26    27   am
    30    27    28    2
    31    27    30    1
    32    30    31    1
    33    31    32    1
    34    32    33   ar
    35    33    34   ar
    36    34    35   ar
    37    35    36   ar
    38    13    14   ar
    39    14    15   ar
    40    15    16   ar
    41    16     8   ar
    42    15    10   ar
    43    43    38   ar
    44    36    32   ar
    45     2     3    1
    46    26    29    1
@<TRIPOS>MOLECULE
*****
 43 46 0 0 0
SMALL
GASTEIGER

@<TRIPOS>ATOM
      1 C          62.7368   84.7269   11.2683 C.3     1  UNL1        0.1484
      2 O          63.5527   83.7966   10.4206 O.3     1  UNL1       -0.3810
      3 H          63.6840   82.9597   10.8932 H       1  UNL1        0.2105
      4 C          62.2655   84.2883   12.6231 C.3     1  UNL1        0.1245
      5 C          63.6801   83.5929   14.6883 C.2     1  UNL1        0.2492
      6 O          64.4453   82.5494   15.4471 O.2     1  UNL1       -0.2699
      7 N          63.0306   83.2448   13.3818 N.am    1  UNL1       -0.2735
      8 C          64.2875   89.8804   15.6132 C.ar    1  UNL1        0.2924
      9 N          63.4068   89.2336   16.6408 N.ar    1  UNL1       -0.1946
     10 C          63.3332   87.7676   16.3318 C.ar    1  UNL1        0.1202
     11 C          62.6135   86.6354   17.0026 C.ar    1  UNL1        0.0225
     12 C          62.7292   85.2438   16.4548 C.ar    1  UNL1        0.0063
     13 C          63.5645   84.9845   15.2361 C.ar    1  UNL1        0.0567
     14 C          64.2841   86.1168   14.5653 C.ar    1  UNL1        0.0437
     15 C          64.1685   87.5084   15.1132 C.ar    1  UNL1        0.1662
     16 O          64.7583   88.8141   14.6691 O.2     1  UNL1       -0.4237
     17 N          64.6362   91.3376   15.5422 N.pl3   1  UNL1       -0.2619
     18 C          64.0979   92.2885   16.5697 C.3     1  UNL1        0.1166
     19 C          66.9865   92.0542   14.6982 C.3     1  UNL1        0.0233
     20 C          65.5233   91.8438   14.4437 C.3     1  UNL1        0.0952
     21 C          63.1462   81.8532   12.8340 C.3     1  UNL1        0.0937
     22 C          62.2089   80.7812   13.3056 C.3     1  UNL1        0.0199
     23 C          62.4400   79.3540   12.9064 C.3     1  UNL1        0.0018
     24 C          61.0405   81.1366   14.1766 C.3     1  UNL1        0.0018
     25 C          62.3922   86.0959   10.7612 C.3     1  UNL1        0.1076
     26 N          61.6781   87.0682   11.6528 N.am    1  UNL1       -0.2695
     27 C          60.3533   87.6346   11.2358 C.2     1  UNL1        0.4020
     28 O          59.7425   87.2289    9.9273 O.2     1  UNL1       -0.2264
     29 H          62.0790   87.3344   12.5117 H       1  UNL1        0.1528
     30 O          59.6392   88.6069   12.1275 O.3     1  UNL1       -0.4291
     31 C          60.0181   90.0581   12.1103 C.3     1  UNL1        0.2447
     32 C          61.3525   90.4784   11.5693 C.ar    1  UNL1        0.0714
     33 C          61.6659   90.7830   10.1343 C.ar    1  UNL1        0.1053
     34 N          63.1149   91.1608   10.0463 N.ar    1  UNL1       -0.2350
     35 C          63.6971   91.0897   11.4269 C.ar    1  UNL1        0.1343
     36 S          62.6079   90.6679   12.3682 S.2     1  UNL1       -0.0652
     37 C          62.7617   86.4927    9.3627 C.3     1  UNL1        0.0501
     38 C          62.1912   85.7436    8.1950 C.ar    1  UNL1       -0.0013
     39 C          63.0949   84.9480    7.3005 C.ar    1  UNL1       -0.0011
     40 C          62.5244   84.1989    6.1328 C.ar    1  UNL1        0.0204
     41 C          61.0502   84.2454    5.8598 C.ar    1  UNL1        0.0989
     42 N          60.1465   85.0411    6.7543 N.ar    1  UNL1       -0.2426
     43 C          60.7170   85.7902    7.9220 C.ar    1  UNL1        0.0946
@<TRIPOS>BOND
     1    19    20    1
     2    20    17    1
     3    17    18    1
     4    17     8    1
     5     8     9   ar
     6     9    10   ar
     7    10    11   ar
     8    11    12   ar
     9    12    13   ar
    10    13     5    1
    11     5     6    2
    12     5     7   am
    13     7    21    1
    14    21    22    1
    15    22    23    1
    16    22    24    1
    17     7     4    1
    18     4     1    1
    19     1     2    1
    20     1    25    1
    21    25    37    1
    22    37    38    1
    23    38    39   ar
    24    39    40   ar
    25    40    41   ar
    26    41    42   ar
    27    42    43   ar
    28    25    26    1
    29    26    27   am
    30    27    28    2
    31    27    30    1
    32    30    31    1
    33    31    32    1
    34    32    33   ar
    35    33    34   ar
    36    34    35   ar
    37    35    36   ar
    38    13    14   ar
    39    14    15   ar
    40    15    16   ar
    41    16     8   ar
    42    15    10   ar
    43    43    38   ar
    44    36    32   ar
    45     2     3    1
    46    26    29    1
@<TRIPOS>MOLECULE
*****
 43 46 0 0 0
SMALL
GASTEIGER

@<TRIPOS>ATOM
      1 C          62.4129   85.5323   11.4405 C.3     1  UNL1        0.1484
      2 O          63.2438   84.8775   10.3772 O.3     1  UNL1       -0.3810
      3 H          63.3997   83.9499   10.6142 H       1  UNL1        0.2105
      4 C          61.9644   84.7427   12.6344 C.3     1  UNL1        0.1245
      5 C          63.6494   83.9707   14.4550 C.2     1  UNL1        0.2492
      6 O          64.5427   82.9138   15.0338 O.2     1  UNL1       -0.2699
      7 N          62.8577   83.6858   13.2132 N.am    1  UNL1       -0.2735
      8 C          64.2662   90.1659   15.8678 C.ar    1  UNL1        0.2924
      9 N          63.4236   89.4322   16.8687 N.ar    1  UNL1       -0.1946
     10 C          63.3446   87.9958   16.4439 C.ar    1  UNL1        0.1202
     11 C          62.6524   86.8082   17.0443 C.ar    1  UNL1        0.0225
     12 C          62.7540   85.4665   16.3813 C.ar    1  UNL1        0.0063
     13 C          63.5478   85.3124   15.1180 C.ar    1  UNL1        0.0567
     14 C          64.2400   86.5000   14.5176 C.ar    1  UNL1        0.0437
     15 C          64.1384   87.8417   15.1805 C.ar    1  UNL1        0.1662
     16 O          64.7080   89.1829   14.8245 O.2     1  UNL1       -0.4237
     17 N          64.6072   91.6262   15.9039 N.pl3   1  UNL1       -0.2619
     18 C          63.9245   92.5317   16.8856 C.3     1  UNL1        0.1166
     19 C          67.0684   91.7711   15.0844 C.3     1  UNL1        0.0233
     20 C          65.6310   92.1809   14.9583 C.3     1  UNL1        0.0952
     21 C          62.9593   82.3441   12.5503 C.3     1  UNL1        0.0937
     22 C          62.2522   81.1603   13.1408 C.3     1  UNL1        0.0199
     23 C          61.2404   81.3578   14.2303 C.3     1  UNL1        0.0018
     24 C          62.5570   79.7789   12.6417 C.3     1  UNL1        0.0018
     25 C          62.0303   86.9768   11.3099 C.3     1  UNL1        0.1076
     26 N          63.0792   88.0435   11.4212 N.am    1  UNL1       -0.2695
     27 C          62.7331   89.3765   12.0155 C.2     1  UNL1        0.4020
     28 O          61.3383   89.6430   12.4985 O.2     1  UNL1       -0.2264
     29 H          63.9947   87.8686   11.1042 H       1  UNL1        0.1528
     30 O          63.7820   90.4431   12.1268 O.3     1  UNL1       -0.4291
     31 C          63.9296   91.4661   11.0398 C.3     1  UNL1        0.2447
     32 C          65.1489   92.3384   10.9914 C.ar    1  UNL1        0.0714
     33 C          66.5086   91.9832   11.5163 C.ar    1  UNL1        0.1053
     34 N          67.4227   93.1443   11.2590 N.ar    1  UNL1       -0.2350
     35 C          66.6281   94.2172   10.5752 C.ar    1  UNL1        0.1343
     36 S          65.2228   93.7191   10.4098 S.2     1  UNL1       -0.0652
     37 C          60.5990   87.3548   11.0680 C.3     1  UNL1        0.0501
     38 C          60.1464   87.7352    9.6895 C.ar    1  UNL1       -0.0013
     39 C          59.6047   86.6879    8.7622 C.ar    1  UNL1       -0.0011
     40 C          59.1521   87.0683    7.3837 C.ar    1  UNL1        0.0204
     41 C          59.2412   88.4960    6.9323 C.ar    1  UNL1        0.0989
     42 N          59.7829   89.5433    7.8596 N.ar    1  UNL1       -0.2426
     43 C          60.2355   89.1629    9.2381 C.ar    1  UNL1        0.0946
@<TRIPOS>BOND
     1    19    20    1
     2    20    17    1
     3    17    18    1
     4    17     8    1
     5     8     9   ar
     6     9    10   ar
     7    10    11   ar
     8    11    12   ar
     9    12    13   ar
    10    13     5    1
    11     5     6    2
    12     5     7   am
    13     7    21    1
    14    21    22    1
    15    22    23    1
    16    22    24    1
    17     7     4    1
    18     4     1    1
    19     1     2    1
    20     1    25    1
    21    25    37    1
    22    37    38    1
    23    38    39   ar
    24    39    40   ar
    25    40    41   ar
    26    41    42   ar
    27    42    43   ar
    28    25    26    1
    29    26    27   am
    30    27    28    2
    31    27    30    1
    32    30    31    1
    33    31    32    1
    34    32    33   ar
    35    33    34   ar
    36    34    35   ar
    37    35    36   ar
    38    13    14   ar
    39    14    15   ar
    40    15    16   ar
    41    16     8   ar
    42    15    10   ar
    43    43    38   ar
    44    36    32   ar
    45     2     3    1
    46    26    29    1
@<TRIPOS>MOLECULE
*****
 43 46 0 0 0
SMALL
GASTEIGER

@<TRIPOS>ATOM
      1 C          63.1541   88.5733   12.7886 C.3     1  UNL1        0.1484
      2 O          62.9314   87.1763   12.2899 O.3     1  UNL1       -0.3810
      3 H          63.5473   86.5725   12.7337 H       1  UNL1        0.2105
      4 C          64.2086   88.8419   13.8211 C.3     1  UNL1        0.1245
      5 C          63.5812   87.8401   16.1348 C.2     1  UNL1        0.2492
      6 O          63.1930   88.0313   17.5710 O.2     1  UNL1       -0.2699
      7 N          63.8204   89.0330   15.2574 N.am    1  UNL1       -0.2735
      8 C          62.4172   81.9201   14.0479 C.ar    1  UNL1        0.2924
      9 N          63.8678   82.2877   13.9454 N.ar    1  UNL1       -0.1946
     10 C          64.0285   83.6881   14.4583 C.ar    1  UNL1        0.1202
     11 C          65.2307   84.5742   14.5976 C.ar    1  UNL1        0.0225
     12 C          65.0816   85.9582   15.1564 C.ar    1  UNL1        0.0063
     13 C          63.7303   86.4561   15.5759 C.ar    1  UNL1        0.0567
     14 C          62.5281   85.5700   15.4367 C.ar    1  UNL1        0.0437
     15 C          62.6772   84.1860   14.8779 C.ar    1  UNL1        0.1662
     16 O          61.6813   83.0933   14.6242 O.2     1  UNL1       -0.4237
     17 N          61.8091   80.6094   13.6449 N.pl3   1  UNL1       -0.2619
     18 C          60.4945   80.1820   14.2270 C.3     1  UNL1        0.1166
     19 C          62.8961   80.2612   11.3110 C.3     1  UNL1        0.0233
     20 C          62.5157   79.7262   12.6597 C.3     1  UNL1        0.0952
     21 C          63.6713   90.4171   15.8162 C.3     1  UNL1        0.0937
     22 C          64.7895   91.4070   15.6758 C.3     1  UNL1        0.0199
     23 C          65.0107   92.4440   16.7367 C.3     1  UNL1        0.0018
     24 C          65.6864   91.3599   14.4744 C.3     1  UNL1        0.0018
     25 C          62.3224   89.7017   12.2548 C.3     1  UNL1        0.1076
     26 N          62.9313   91.0602   12.0704 N.am    1  UNL1       -0.2695
     27 C          63.5536   91.4311   10.7570 C.2     1  UNL1        0.4020
     28 O          63.5671   90.4437    9.6279 O.2     1  UNL1       -0.2264
     29 H          62.9224   91.7083   12.8114 H       1  UNL1        0.1528
     30 O          64.1625   92.7896   10.5726 O.3     1  UNL1       -0.4291
     31 C          65.4358   93.1433   11.2820 C.3     1  UNL1        0.2447
     32 C          66.7079   93.3050   10.5038 C.ar    1  UNL1        0.0714
     33 C          67.2112   94.5786    9.8915 C.ar    1  UNL1        0.1053
     34 N          68.5144   94.2822    9.2105 N.ar    1  UNL1       -0.2350
     35 C          68.8166   92.8254    9.4019 C.ar    1  UNL1        0.1343
     36 S          67.7001   92.2215   10.2012 S.2     1  UNL1       -0.0652
     37 C          60.8820   89.4717   11.9054 C.3     1  UNL1        0.0501
     38 C          60.5192   88.8551   10.5870 C.ar    1  UNL1       -0.0013
     39 C          60.4845   87.3626   10.4413 C.ar    1  UNL1       -0.0011
     40 C          60.1217   86.7460    9.1229 C.ar    1  UNL1        0.0204
     41 C          59.7936   87.6218    7.9503 C.ar    1  UNL1        0.0989
     42 N          59.8282   89.1143    8.0960 N.ar    1  UNL1       -0.2426
     43 C          60.1910   89.7309    9.4144 C.ar    1  UNL1        0.0946
@<TRIPOS>BOND
     1    19    20    1
     2    20    17    1
     3    17    18    1
     4    17     8    1
     5     8     9   ar
     6     9    10   ar
     7    10    11   ar
     8    11    12   ar
     9    12    13   ar
    10    13     5    1
    11     5     6    2
    12     5     7   am
    13     7    21    1
    14    21    22    1
    15    22    23    1
    16    22    24    1
    17     7     4    1
    18     4     1    1
    19     1     2    1
    20     1    25    1
    21    25    37    1
    22    37    38    1
    23    38    39   ar
    24    39    40   ar
    25    40    41   ar
    26    41    42   ar
    27    42    43   ar
    28    25    26    1
    29    26    27   am
    30    27    28    2
    31    27    30    1
    32    30    31    1
    33    31    32    1
    34    32    33   ar
    35    33    34   ar
    36    34    35   ar
    37    35    36   ar
    38    13    14   ar
    39    14    15   ar
    40    15    16   ar
    41    16     8   ar
    42    15    10   ar
    43    43    38   ar
    44    36    32   ar
    45     2     3    1
    46    26    29    1
