@<TRIPOS>MOLECULE
*****
 25 28 0 0 0
SMALL
GASTEIGER

@<TRIPOS>ATOM
      1 C          63.1338   89.7261   13.9732 C.3     1  UNL1        0.1363
      2 N          63.8887   90.6971   13.1146 N.ar    1  UNL1       -0.2667
      3 C          63.4862   90.9039   11.6845 C.ar    1  UNL1        0.2036
      4 N          64.2410   91.8749   10.8258 N.ar    1  UNL1       -0.2147
      5 C          65.3984   92.6391   11.3972 C.ar    1  UNL1        0.0911
      6 C          65.8009   92.4322   12.8273 C.ar    1  UNL1        0.0801
      7 C          65.0460   91.4612   13.6860 C.ar    1  UNL1        0.2645
      8 O          65.4486   91.2544   15.1161 O.2     1  UNL1       -0.2668
      9 C          66.1532   93.6101   10.5385 C.ar    1  UNL1        0.0485
     10 C          65.7256   95.0465   10.4767 C.ar    1  UNL1        0.0244
     11 C          66.4804   96.0175    9.6180 C.ar    1  UNL1        0.0991
     12 N          67.6629   95.5521    8.8212 N.ar    1  UNL1       -0.2400
     13 C          68.0906   94.1158    8.8830 C.ar    1  UNL1        0.1285
     14 C          67.3358   93.1448    9.7417 C.ar    1  UNL1        0.1606
     15 F          67.7635   91.7083    9.8035 F       1  UNL1       -0.2025
     16 N          62.3288   90.1397   11.1130 N.pl3   1  UNL1       -0.2744
     17 C          60.9256   90.6108   11.3564 C.3     1  UNL1        0.1256
     18 C          59.7682   89.8466   10.7849 C.3     1  UNL1        0.1635
     19 O          60.0140   88.6114    9.9701 O.3     1  UNL1       -0.3527
     20 C          61.4173   88.1404    9.7268 C.3     1  UNL1        0.1350
     21 C          62.5746   88.9046   10.2982 C.3     1  UNL1        0.1230
     22 C          61.6631   86.9052    8.9120 C.3     1  UNL1        0.0289
     23 C          60.8694   86.1201    7.9101 C.3     1  UNL1        0.0025
     24 C          62.0108   85.1584    7.7597 C.3     1  UNL1        0.0002
     25 C          62.8044   85.9435    8.7614 C.3     1  UNL1        0.0025
@<TRIPOS>BOND
     1     1     2    1
     2     2     3   ar
     3     3    16    1
     4    16    17    1
     5    17    18    1
     6    18    19    1
     7    19    20    1
     8    20    22    1
     9    22    23    1
    10    23    24    1
    11    24    25    1
    12    20    21    1
    13     3     4   ar
    14     4     5   ar
    15     5     9    1
    16     9    10   ar
    17    10    11   ar
    18    11    12   ar
    19    12    13   ar
    20    13    14   ar
    21    14    15    1
    22     5     6   ar
    23     6     7   ar
    24     7     8    2
    25     7     2   ar
    26    21    16    1
    27    14     9   ar
    28    25    22    1
@<TRIPOS>MOLECULE
*****
 25 28 0 0 0
SMALL
GASTEIGER

@<TRIPOS>ATOM
      1 C          61.1196   90.2511   10.8550 C.3     1  UNL1        0.1363
      2 N          61.5583   88.8406   11.1156 N.ar    1  UNL1       -0.2667
      3 C          62.6786   88.5687   12.0751 C.ar    1  UNL1        0.2036
      4 N          63.1173   87.1581   12.3356 N.ar    1  UNL1       -0.2147
      5 C          62.4356   86.0195   11.6366 C.ar    1  UNL1        0.0911
      6 C          61.3152   86.2913   10.6771 C.ar    1  UNL1        0.0801
      7 C          60.8766   87.7019   10.4165 C.ar    1  UNL1        0.2645
      8 O          59.7561   87.9738    9.4569 O.2     1  UNL1       -0.2668
      9 C          62.8743   84.6089   11.8972 C.ar    1  UNL1        0.0485
     10 C          62.7218   84.0169   13.2669 C.ar    1  UNL1        0.0244
     11 C          63.1605   82.6064   13.5275 C.ar    1  UNL1        0.0991
     12 N          63.7516   81.7878   12.4183 N.ar    1  UNL1       -0.2400
     13 C          63.9041   82.3798   11.0485 C.ar    1  UNL1        0.1285
     14 C          63.4655   83.7903   10.7880 C.ar    1  UNL1        0.1606
     15 F          63.6180   84.3823    9.4181 F       1  UNL1       -0.2025
     16 N          63.3604   89.7074   12.7742 N.pl3   1  UNL1       -0.2744
     17 C          63.3053   89.8103   14.2696 C.3     1  UNL1        0.1256
     18 C          63.9871   90.9490   14.9687 C.3     1  UNL1        0.1635
     19 O          64.7239   91.9848   14.1723 O.3     1  UNL1       -0.3527
     20 C          64.7790   91.8818   12.6768 C.3     1  UNL1        0.1350
     21 C          64.0972   90.7431   11.9778 C.3     1  UNL1        0.1230
     22 C          65.5158   92.9175   11.8803 C.3     1  UNL1        0.0289
     23 C          65.8470   93.1021   10.4290 C.3     1  UNL1        0.0025
     24 C          66.5579   94.3823   10.7540 C.3     1  UNL1        0.0002
     25 C          66.2267   94.1978   12.2052 C.3     1  UNL1        0.0025
@<TRIPOS>BOND
     1     1     2    1
     2     2     3   ar
     3     3    16    1
     4    16    17    1
     5    17    18    1
     6    18    19    1
     7    19    20    1
     8    20    22    1
     9    22    23    1
    10    23    24    1
    11    24    25    1
    12    20    21    1
    13     3     4   ar
    14     4     5   ar
    15     5     9    1
    16     9    10   ar
    17    10    11   ar
    18    11    12   ar
    19    12    13   ar
    20    13    14   ar
    21    14    15    1
    22     5     6   ar
    23     6     7   ar
    24     7     8    2
    25     7     2   ar
    26    21    16    1
    27    14     9   ar
    28    25    22    1
@<TRIPOS>MOLECULE
*****
 25 28 0 0 0
SMALL
GASTEIGER

@<TRIPOS>ATOM
      1 C          63.5316   90.3206   15.0572 C.3     1  UNL1        0.1363
      2 N          64.2801   91.1002   14.0170 N.ar    1  UNL1       -0.2667
      3 C          63.9510   90.9214   12.5646 C.ar    1  UNL1        0.2036
      4 N          64.6996   91.7010   11.5244 N.ar    1  UNL1       -0.2147
      5 C          65.7773   92.6593   11.9367 C.ar    1  UNL1        0.0911
      6 C          66.1064   92.8381   13.3892 C.ar    1  UNL1        0.0801
      7 C          65.3578   92.0586   14.4293 C.ar    1  UNL1        0.2645
      8 O          65.6870   92.2374   15.8819 O.2     1  UNL1       -0.2668
      9 C          66.5258   93.4389   10.8966 C.ar    1  UNL1        0.0485
     10 C          67.3483   92.7204    9.8684 C.ar    1  UNL1        0.0244
     11 C          68.0969   93.5000    8.8282 C.ar    1  UNL1        0.0991
     12 N          68.0230   94.9981    8.8163 N.ar    1  UNL1       -0.2400
     13 C          67.2005   95.7166    9.8445 C.ar    1  UNL1        0.1285
     14 C          66.4520   94.9370   10.8847 C.ar    1  UNL1        0.1606
     15 F          65.6295   95.6556   11.9129 F       1  UNL1       -0.2025
     16 N          62.8733   89.9630   12.1522 N.pl3   1  UNL1       -0.2744
     17 C          61.4930   90.4692   11.8549 C.3     1  UNL1        0.1256
     18 C          60.4152   89.5108   11.4425 C.3     1  UNL1        0.1635
     19 O          60.7179   88.0461   11.3275 O.3     1  UNL1       -0.3527
     20 C          62.0983   87.5399   11.6248 C.3     1  UNL1        0.1350
     21 C          63.1759   88.4983   12.0372 C.3     1  UNL1        0.1230
     22 C          62.4009   86.0753   11.5098 C.3     1  UNL1        0.0289
     23 C          62.7479   84.9845   12.4793 C.3     1  UNL1        0.0025
     24 C          62.8289   84.0040   11.3471 C.3     1  UNL1        0.0002
     25 C          62.4820   85.0946   10.3777 C.3     1  UNL1        0.0025
@<TRIPOS>BOND
     1     1     2    1
     2     2     3   ar
     3     3    16    1
     4    16    17    1
     5    17    18    1
     6    18    19    1
     7    19    20    1
     8    20    22    1
     9    22    23    1
    10    23    24    1
    11    24    25    1
    12    20    21    1
    13     3     4   ar
    14     4     5   ar
    15     5     9    1
    16     9    10   ar
    17    10    11   ar
    18    11    12   ar
    19    12    13   ar
    20    13    14   ar
    21    14    15    1
    22     5     6   ar
    23     6     7   ar
    24     7     8    2
    25     7     2   ar
    26    21    16    1
    27    14     9   ar
    28    25    22    1
@<TRIPOS>MOLECULE
*****
 25 28 0 0 0
SMALL
GASTEIGER

@<TRIPOS>ATOM
      1 C          63.2122   88.9495   17.1043 C.3     1  UNL1        0.1363
      2 N          63.2915   87.7338   16.2293 N.ar    1  UNL1       -0.2667
      3 C          63.7489   87.8624   14.8065 C.ar    1  UNL1        0.2036
      4 N          63.8282   86.6467   13.9314 N.ar    1  UNL1       -0.2147
      5 C          63.4501   85.3024   14.4791 C.ar    1  UNL1        0.0911
      6 C          62.9927   85.1738   15.9018 C.ar    1  UNL1        0.0801
      7 C          62.9134   86.3895   16.7769 C.ar    1  UNL1        0.2645
      8 O          62.4560   86.2609   18.1997 O.2     1  UNL1       -0.2668
      9 C          63.5294   84.0867   13.6040 C.ar    1  UNL1        0.0485
     10 C          63.9023   82.7598   14.1956 C.ar    1  UNL1        0.0244
     11 C          63.9816   81.5441   13.3205 C.ar    1  UNL1        0.0991
     12 N          63.6880   81.6553   11.8538 N.ar    1  UNL1       -0.2400
     13 C          63.3150   82.9822   11.2622 C.ar    1  UNL1        0.1285
     14 C          63.2357   84.1979   12.1373 C.ar    1  UNL1        0.1606
     15 F          62.8628   85.5249   11.5455 F       1  UNL1       -0.2025
     16 N          64.1270   89.2067   14.2588 N.pl3   1  UNL1       -0.2744
     17 C          63.3511   89.7975   13.1191 C.3     1  UNL1        0.1256
     18 C          63.7292   91.1418   12.5714 C.3     1  UNL1        0.1635
     19 O          64.8833   91.8952   13.1634 O.3     1  UNL1       -0.3527
     20 C          65.6592   91.3044   14.3032 C.3     1  UNL1        0.1350
     21 C          65.2811   89.9601   14.8508 C.3     1  UNL1        0.1230
     22 C          66.8132   92.0578   14.8952 C.3     1  UNL1        0.0289
     23 C          68.2160   92.3628   14.4600 C.3     1  UNL1        0.0025
     24 C          68.4453   93.1234   15.7324 C.3     1  UNL1        0.0002
     25 C          67.0427   92.8184   16.1675 C.3     1  UNL1        0.0025
@<TRIPOS>BOND
     1     1     2    1
     2     2     3   ar
     3     3    16    1
     4    16    17    1
     5    17    18    1
     6    18    19    1
     7    19    20    1
     8    20    22    1
     9    22    23    1
    10    23    24    1
    11    24    25    1
    12    20    21    1
    13     3     4   ar
    14     4     5   ar
    15     5     9    1
    16     9    10   ar
    17    10    11   ar
    18    11    12   ar
    19    12    13   ar
    20    13    14   ar
    21    14    15    1
    22     5     6   ar
    23     6     7   ar
    24     7     8    2
    25     7     2   ar
    26    21    16    1
    27    14     9   ar
    28    25    22    1
@<TRIPOS>MOLECULE
*****
 25 28 0 0 0
SMALL
GASTEIGER

@<TRIPOS>ATOM
      1 C          60.0547   87.6494    9.6420 C.3     1  UNL1        0.1363
      2 N          60.9818   88.4228   10.5322 N.ar    1  UNL1       -0.2667
      3 C          62.2002   87.7598   11.1031 C.ar    1  UNL1        0.2036
      4 N          63.1272   88.5331   11.9933 N.ar    1  UNL1       -0.2147
      5 C          62.8359   89.9695   12.3127 C.ar    1  UNL1        0.0911
      6 C          61.6175   90.6325   11.7418 C.ar    1  UNL1        0.0801
      7 C          60.6905   89.8591   10.8515 C.ar    1  UNL1        0.2645
      8 O          59.4721   90.5222   10.2806 O.2     1  UNL1       -0.2668
      9 C          63.7630   90.7428   13.2029 C.ar    1  UNL1        0.0485
     10 C          63.6731   90.5907   14.6924 C.ar    1  UNL1        0.0244
     11 C          64.6001   91.3640   15.5826 C.ar    1  UNL1        0.0991
     12 N          65.6171   92.2895   14.9833 N.ar    1  UNL1       -0.2400
     13 C          65.7070   92.4417   13.4938 C.ar    1  UNL1        0.1285
     14 C          64.7799   91.6683   12.6036 C.ar    1  UNL1        0.1606
     15 F          64.8699   91.8205   11.1140 F       1  UNL1       -0.2025
     16 N          62.4915   86.3234   10.7838 N.pl3   1  UNL1       -0.2744
     17 C          62.8934   85.9309    9.3930 C.3     1  UNL1        0.1256
     18 C          63.1848   84.4944    9.0737 C.3     1  UNL1        0.1635
     19 O          63.0742   83.4506   10.1452 O.3     1  UNL1       -0.3527
     20 C          62.6723   83.8432   11.5361 C.3     1  UNL1        0.1350
     21 C          62.3809   85.2795   11.8553 C.3     1  UNL1        0.1230
     22 C          62.5617   82.7994   12.6076 C.3     1  UNL1        0.0289
     23 C          62.3735   82.8226   14.0957 C.3     1  UNL1        0.0025
     24 C          62.4053   81.3232   14.1230 C.3     1  UNL1        0.0002
     25 C          62.5935   81.3000   12.6351 C.3     1  UNL1        0.0025
@<TRIPOS>BOND
     1     1     2    1
     2     2     3   ar
     3     3    16    1
     4    16    17    1
     5    17    18    1
     6    18    19    1
     7    19    20    1
     8    20    22    1
     9    22    23    1
    10    23    24    1
    11    24    25    1
    12    20    21    1
    13     3     4   ar
    14     4     5   ar
    15     5     9    1
    16     9    10   ar
    17    10    11   ar
    18    11    12   ar
    19    12    13   ar
    20    13    14   ar
    21    14    15    1
    22     5     6   ar
    23     6     7   ar
    24     7     8    2
    25     7     2   ar
    26    21    16    1
    27    14     9   ar
    28    25    22    1
@<TRIPOS>MOLECULE
*****
 25 28 0 0 0
SMALL
GASTEIGER

@<TRIPOS>ATOM
      1 C          64.6605   86.7351   14.9962 C.3     1  UNL1        0.1363
      2 N          63.8611   86.6629   13.7291 N.ar    1  UNL1       -0.2667
      3 C          63.4525   87.9240   13.0272 C.ar    1  UNL1        0.2036
      4 N          62.6530   87.8518   11.7600 N.ar    1  UNL1       -0.2147
      5 C          62.2622   86.5185   11.1947 C.ar    1  UNL1        0.0911
      6 C          62.6708   85.2574   11.8966 C.ar    1  UNL1        0.0801
      7 C          63.4702   85.3297   13.1638 C.ar    1  UNL1        0.2645
      8 O          63.8788   84.0685   13.8657 O.2     1  UNL1       -0.2668
      9 C          61.4628   86.4463    9.9275 C.ar    1  UNL1        0.0485
     10 C          60.1218   87.1136    9.8477 C.ar    1  UNL1        0.0244
     11 C          59.3224   87.0414    8.5805 C.ar    1  UNL1        0.0991
     12 N          59.8640   86.3019    7.3932 N.ar    1  UNL1       -0.2400
     13 C          61.2050   85.6346    7.4731 C.ar    1  UNL1        0.1285
     14 C          62.0044   85.7068    8.7402 C.ar    1  UNL1        0.1606
     15 F          63.3455   85.0395    8.8200 F       1  UNL1       -0.2025
     16 N          63.8433   89.2574   13.5924 N.pl3   1  UNL1       -0.2744
     17 C          63.6477   89.5394   15.0526 C.3     1  UNL1        0.1256
     18 C          64.0385   90.8728   15.6179 C.3     1  UNL1        0.1635
     19 O          64.6249   91.9241   14.7229 O.3     1  UNL1       -0.3527
     20 C          64.8204   91.6420   13.2626 C.3     1  UNL1        0.1350
     21 C          64.4296   90.3086   12.6975 C.3     1  UNL1        0.1230
     22 C          65.4068   92.6932   12.3677 C.3     1  UNL1        0.0289
     23 C          66.2273   93.9307   12.5811 C.3     1  UNL1        0.0025
     24 C          66.2361   94.1799   11.1020 C.3     1  UNL1        0.0002
     25 C          65.4156   92.9426   10.8886 C.3     1  UNL1        0.0025
@<TRIPOS>BOND
     1     1     2    1
     2     2     3   ar
     3     3    16    1
     4    16    17    1
     5    17    18    1
     6    18    19    1
     7    19    20    1
     8    20    22    1
     9    22    23    1
    10    23    24    1
    11    24    25    1
    12    20    21    1
    13     3     4   ar
    14     4     5   ar
    15     5     9    1
    16     9    10   ar
    17    10    11   ar
    18    11    12   ar
    19    12    13   ar
    20    13    14   ar
    21    14    15    1
    22     5     6   ar
    23     6     7   ar
    24     7     8    2
    25     7     2   ar
    26    21    16    1
    27    14     9   ar
    28    25    22    1
@<TRIPOS>MOLECULE
*****
 25 28 0 0 0
SMALL
GASTEIGER

@<TRIPOS>ATOM
      1 C          61.7572   86.1685   10.8996 C.3     1  UNL1        0.1363
      2 N          62.4347   87.2957   11.6210 N.ar    1  UNL1       -0.2667
      3 C          63.2854   87.0127   12.8236 C.ar    1  UNL1        0.2036
      4 N          63.9629   88.1399   13.5451 N.ar    1  UNL1       -0.2147
      5 C          63.7898   89.5500   13.0639 C.ar    1  UNL1        0.0911
      6 C          62.9391   89.8329   11.8613 C.ar    1  UNL1        0.0801
      7 C          62.2616   88.7058   11.1399 C.ar    1  UNL1        0.2645
      8 O          61.4110   88.9888    9.9372 O.2     1  UNL1       -0.2668
      9 C          64.4673   90.6771   13.7854 C.ar    1  UNL1        0.0485
     10 C          65.3455   91.6305   13.0306 C.ar    1  UNL1        0.0244
     11 C          66.0230   92.7577   13.7520 C.ar    1  UNL1        0.0991
     12 N          65.8223   92.9314   15.2283 N.ar    1  UNL1       -0.2400
     13 C          64.9441   91.9781   15.9832 C.ar    1  UNL1        0.1285
     14 C          64.2666   90.8509   15.2617 C.ar    1  UNL1        0.1606
     15 F          63.3884   89.8975   16.0166 F       1  UNL1       -0.2025
     16 N          63.4585   85.6025   13.3049 N.pl3   1  UNL1       -0.2744
     17 C          63.8173   85.3375   14.7370 C.3     1  UNL1        0.1256
     18 C          63.9905   83.9273   15.2182 C.3     1  UNL1        0.1635
     19 O          63.8048   82.7822   14.2672 O.3     1  UNL1       -0.3527
     20 C          63.4460   83.0473   12.8350 C.3     1  UNL1        0.1350
     21 C          63.2728   84.4574   12.3539 C.3     1  UNL1        0.1230
     22 C          63.2603   81.9023   11.8841 C.3     1  UNL1        0.0289
     23 C          63.5154   81.6858   10.4218 C.3     1  UNL1        0.0025
     24 C          62.9977   80.2829   10.5392 C.3     1  UNL1        0.0002
     25 C          62.7427   80.4993   12.0014 C.3     1  UNL1        0.0025
@<TRIPOS>BOND
     1     1     2    1
     2     2     3   ar
     3     3    16    1
     4    16    17    1
     5    17    18    1
     6    18    19    1
     7    19    20    1
     8    20    22    1
     9    22    23    1
    10    23    24    1
    11    24    25    1
    12    20    21    1
    13     3     4   ar
    14     4     5   ar
    15     5     9    1
    16     9    10   ar
    17    10    11   ar
    18    11    12   ar
    19    12    13   ar
    20    13    14   ar
    21    14    15    1
    22     5     6   ar
    23     6     7   ar
    24     7     8    2
    25     7     2   ar
    26    21    16    1
    27    14     9   ar
    28    25    22    1
@<TRIPOS>MOLECULE
*****
 25 28 0 0 0
SMALL
GASTEIGER

@<TRIPOS>ATOM
      1 C          62.4898   90.5214   11.5841 C.3     1  UNL1        0.1363
      2 N          62.6678   89.0481   11.8030 N.ar    1  UNL1       -0.2667
      3 C          63.3124   88.5495   13.0623 C.ar    1  UNL1        0.2036
      4 N          63.4904   87.0763   13.2812 N.ar    1  UNL1       -0.2147
      5 C          63.0239   86.1017   12.2407 C.ar    1  UNL1        0.0911
      6 C          62.3793   86.6003   10.9815 C.ar    1  UNL1        0.0801
      7 C          62.2013   88.0736   10.7626 C.ar    1  UNL1        0.2645
      8 O          61.5567   88.5722    9.5032 O.2     1  UNL1       -0.2668
      9 C          63.2019   84.6285   12.4596 C.ar    1  UNL1        0.0485
     10 C          63.0103   84.0450   13.8281 C.ar    1  UNL1        0.0244
     11 C          63.1883   82.5717   14.0469 C.ar    1  UNL1        0.0991
     12 N          63.5580   81.6820   12.8973 N.ar    1  UNL1       -0.2400
     13 C          63.7497   82.2655   11.5289 C.ar    1  UNL1        0.1285
     14 C          63.5717   83.7387   11.3100 C.ar    1  UNL1        0.1606
     15 F          63.7634   84.3222    9.9415 F       1  UNL1       -0.2025
     16 N          63.7790   89.5241   14.1028 N.pl3   1  UNL1       -0.2744
     17 C          62.8930   89.8617   15.2651 C.3     1  UNL1        0.1256
     18 C          63.3596   90.8363   16.3056 C.3     1  UNL1        0.1635
     19 O          64.7121   91.4732   16.1837 O.3     1  UNL1       -0.3527
     20 C          65.5982   91.1355   15.0213 C.3     1  UNL1        0.1350
     21 C          65.1316   90.1610   13.9809 C.3     1  UNL1        0.1230
     22 C          66.9508   91.7724   14.8994 C.3     1  UNL1        0.0289
     23 C          67.9483   91.9402   13.7917 C.3     1  UNL1        0.0025
     24 C          68.8636   92.6731   14.7271 C.3     1  UNL1        0.0002
     25 C          67.8662   92.5054   15.8347 C.3     1  UNL1        0.0025
@<TRIPOS>BOND
     1     1     2    1
     2     2     3   ar
     3     3    16    1
     4    16    17    1
     5    17    18    1
     6    18    19    1
     7    19    20    1
     8    20    22    1
     9    22    23    1
    10    23    24    1
    11    24    25    1
    12    20    21    1
    13     3     4   ar
    14     4     5   ar
    15     5     9    1
    16     9    10   ar
    17    10    11   ar
    18    11    12   ar
    19    12    13   ar
    20    13    14   ar
    21    14    15    1
    22     5     6   ar
    23     6     7   ar
    24     7     8    2
    25     7     2   ar
    26    21    16    1
    27    14     9   ar
    28    25    22    1
@<TRIPOS>MOLECULE
*****
 25 28 0 0 0
SMALL
GASTEIGER

@<TRIPOS>ATOM
      1 C          64.3935   88.6514   14.1299 C.3     1  UNL1        0.1363
      2 N          63.5320   88.3879   12.9305 N.ar    1  UNL1       -0.2667
      3 C          63.0500   86.9966   12.6444 C.ar    1  UNL1        0.2036
      4 N          62.1885   86.7331   11.4451 N.ar    1  UNL1       -0.2147
      5 C          61.8091   87.8609   10.5318 C.ar    1  UNL1        0.0911
      6 C          62.2912   89.2522   10.8179 C.ar    1  UNL1        0.0801
      7 C          63.1526   89.5157   12.0172 C.ar    1  UNL1        0.2645
      8 O          63.6347   90.9070   12.3033 O.2     1  UNL1       -0.2668
      9 C          60.9477   87.5974    9.3324 C.ar    1  UNL1        0.0485
     10 C          60.9531   86.2429    8.6881 C.ar    1  UNL1        0.0244
     11 C          60.0916   85.9794    7.4888 C.ar    1  UNL1        0.0991
     12 N          59.2247   87.0704    6.9337 N.ar    1  UNL1       -0.2400
     13 C          59.2193   88.4249    7.5780 C.ar    1  UNL1        0.1285
     14 C          60.0808   88.6884    8.7774 C.ar    1  UNL1        0.1606
     15 F          60.0753   90.0430    9.4217 F       1  UNL1       -0.2025
     16 N          63.4293   85.8687   13.5577 N.pl3   1  UNL1       -0.2744
     17 C          64.3114   86.1277   14.7430 C.3     1  UNL1        0.1256
     18 C          64.6907   84.9998   15.6563 C.3     1  UNL1        0.1635
     19 O          64.1881   83.6130   15.3842 O.3     1  UNL1       -0.3527
     20 C          63.3060   83.3540   14.1989 C.3     1  UNL1        0.1350
     21 C          62.9267   84.4819   13.2857 C.3     1  UNL1        0.1230
     22 C          62.8033   81.9672   13.9268 C.3     1  UNL1        0.0289
     23 C          63.3676   80.7453   13.2644 C.3     1  UNL1        0.0025
     24 C          62.0924   80.0060   13.5421 C.3     1  UNL1        0.0002
     25 C          61.5282   81.2277   14.2044 C.3     1  UNL1        0.0025
@<TRIPOS>BOND
     1     1     2    1
     2     2     3   ar
     3     3    16    1
     4    16    17    1
     5    17    18    1
     6    18    19    1
     7    19    20    1
     8    20    22    1
     9    22    23    1
    10    23    24    1
    11    24    25    1
    12    20    21    1
    13     3     4   ar
    14     4     5   ar
    15     5     9    1
    16     9    10   ar
    17    10    11   ar
    18    11    12   ar
    19    12    13   ar
    20    13    14   ar
    21    14    15    1
    22     5     6   ar
    23     6     7   ar
    24     7     8    2
    25     7     2   ar
    26    21    16    1
    27    14     9   ar
    28    25    22    1
