@<TRIPOS>MOLECULE
*****
 41 44 0 0 0
SMALL
GASTEIGER

@<TRIPOS>ATOM
      1 N          61.6319   88.0698   10.4451 N.ar    1  UNL1       -0.2252
      2 C          62.8139   88.9775   10.6148 C.ar    1  UNL1        0.1148
      3 C          62.5994   89.7908   11.8568 C.ar    1  UNL1        0.1134
      4 N          61.2847   89.3857   12.4547 N.ar    1  UNL1       -0.1318
      5 N          60.6867   88.3221   11.5823 N.ar    1  UNL1       -0.0638
      6 C          63.5352   90.8272   12.4047 C.3     1  UNL1        0.0813
      7 C          63.3825   91.6300   11.1468 C.3     1  UNL1        0.0220
      8 C          63.6878   90.0244   13.6625 C.3     1  UNL1        0.0187
      9 C          64.0382   88.5680   13.5849 C.3     1  UNL1        0.0017
     10 C          63.4900   90.6781   14.9981 C.3     1  UNL1        0.0017
     11 N          64.4710   91.8636   12.9525 N.3     1  UNL1       -0.2914
     12 H          64.4166   91.8014   13.9692 H       1  UNL1        0.1238
     13 C          65.9268   91.8242   12.5935 C.3     1  UNL1        0.0959
     14 C          66.4559   92.7143   11.5081 C.ar    1  UNL1       -0.0058
     15 C          67.3621   92.1528   10.4530 C.ar    1  UNL1       -0.0013
     16 C          67.8912   93.0429    9.3676 C.ar    1  UNL1        0.0193
     17 C          67.5140   94.4943    9.3375 C.ar    1  UNL1        0.0879
     18 N          67.8774   95.6065    8.3989 N.ar    1  UNL1       -0.2363
     19 C          67.1957   96.8553    8.8740 C.ar    1  UNL1        0.1345
     20 S          66.4110   96.5150   10.1063 S.2     1  UNL1       -0.0645
     21 C          66.6077   95.0558   10.3927 C.ar    1  UNL1        0.0483
     22 C          66.0787   94.1657   11.4780 C.ar    1  UNL1        0.0051
     23 C          61.4303   87.0830    9.3336 C.3     1  UNL1        0.1676
     24 C          62.3053   85.8681    9.2412 C.2     1  UNL1        0.2165
     25 O          62.5977   85.2545    7.9040 O.2     1  UNL1       -0.2901
     26 C          62.8879   85.2669   10.4858 C.3     1  UNL1        0.2712
     27 O          63.2121   83.8031   10.5308 O.3     1  UNL1       -0.4627
     28 C          62.9256   83.0093   11.7708 C.ar    1  UNL1        0.1981
     29 C          62.8000   81.5166   11.6936 C.ar    1  UNL1        0.2034
     30 F          62.9609   80.8176   10.3762 F       1  UNL1       -0.1985
     31 C          62.5134   80.7229   12.9337 C.ar    1  UNL1        0.1728
     32 F          62.3878   79.2302   12.8564 F       1  UNL1       -0.2016
     33 C          62.3525   81.4219   14.2511 C.ar    1  UNL1        0.0641
     34 C          62.4781   82.9146   14.3284 C.ar    1  UNL1        0.1728
     35 F          62.3172   83.6136   15.6458 F       1  UNL1       -0.2016
     36 C          62.7646   83.7083   13.0883 C.ar    1  UNL1        0.2034
     37 F          62.8903   85.2010   13.1656 F       1  UNL1       -0.1985
     38 C          60.3537   87.3111    8.3143 C.3     1  UNL1        0.0321
     39 C          59.7479   88.6742    8.1554 C.3     1  UNL1        0.0024
     40 C          59.5879   90.0029    5.9286 C.3     1  UNL1        0.0000
     41 C          59.0026   89.0220    6.9010 C.3     1  UNL1        0.0001
@<TRIPOS>BOND
     1    40    41    1
     2    41    39    1
     3    39    38    1
     4    38    23    1
     5    23    24    1
     6    24    25    2
     7    24    26    1
     8    26    27    1
     9    27    28    1
    10    28    29   ar
    11    29    30    1
    12    29    31   ar
    13    31    32    1
    14    31    33   ar
    15    33    34   ar
    16    34    35    1
    17    34    36   ar
    18    36    37    1
    19    23     1    1
    20     1     2   ar
    21     2     3   ar
    22     3     6    1
    23     6     7    1
    24     6    11    1
    25    11    13    1
    26    13    14    1
    27    14    15   ar
    28    15    16   ar
    29    16    17   ar
    30    17    18   ar
    31    18    19   ar
    32    19    20   ar
    33    20    21   ar
    34    21    22   ar
    35     6     8    1
    36     8     9    1
    37     8    10    1
    38     3     4   ar
    39     4     5   ar
    40    36    28   ar
    41     5     1   ar
    42    22    14   ar
    43    21    17   ar
    44    11    12    1
@<TRIPOS>MOLECULE
*****
 41 44 0 0 0
SMALL
GASTEIGER

@<TRIPOS>ATOM
      1 N          63.8042   83.7268   13.9351 N.ar    1  UNL1       -0.2252
      2 C          63.5703   85.2084   13.9258 C.ar    1  UNL1        0.1148
      3 C          63.7565   85.7159   15.3250 C.ar    1  UNL1        0.1134
      4 N          64.1054   84.5478   16.1990 N.ar    1  UNL1       -0.1318
      5 N          64.1349   83.3185   15.3400 N.ar    1  UNL1       -0.0638
      6 C          63.6181   87.1411   15.7718 C.3     1  UNL1        0.0813
      7 C          64.5759   87.5700   14.7001 C.3     1  UNL1        0.0220
      8 C          62.6602   86.7121   16.8435 C.3     1  UNL1        0.0187
      9 C          61.4294   85.9347   16.4819 C.3     1  UNL1        0.0017
     10 C          62.9332   87.0606   18.2767 C.3     1  UNL1        0.0017
     11 N          63.4796   88.5663   16.2185 N.3     1  UNL1       -0.2914
     12 H          64.3998   88.8640   16.5426 H       1  UNL1        0.1238
     13 C          63.0011   89.6113   15.2546 C.3     1  UNL1        0.0959
     14 C          63.9697   90.6035   14.6824 C.ar    1  UNL1       -0.0058
     15 C          64.9447   91.3041   15.5814 C.ar    1  UNL1       -0.0013
     16 C          65.9133   92.2963   15.0091 C.ar    1  UNL1        0.0193
     17 C          65.9067   92.5878   13.5377 C.ar    1  UNL1        0.0879
     18 N          66.7363   93.5092   12.6934 N.ar    1  UNL1       -0.2363
     19 C          66.2738   93.3780   11.2725 C.ar    1  UNL1        0.1345
     20 S          65.1585   92.3755   11.2387 S.2     1  UNL1       -0.0645
     21 C          64.9316   91.8872   12.6387 C.ar    1  UNL1        0.0483
     22 C          63.9631   90.8950   13.2110 C.ar    1  UNL1        0.0051
     23 C          63.7218   82.8137   12.7479 C.3     1  UNL1        0.1676
     24 C          63.6847   83.3867   11.3621 C.2     1  UNL1        0.2165
     25 O          64.7244   82.9871   10.3573 O.2     1  UNL1       -0.2901
     26 C          62.6081   84.3591   10.9810 C.3     1  UNL1        0.2712
     27 O          62.8253   85.3098    9.8412 O.3     1  UNL1       -0.4627
     28 C          61.9347   86.5063    9.6826 C.ar    1  UNL1        0.1981
     29 C          62.0295   87.6458   10.6535 C.ar    1  UNL1        0.2034
     30 F          63.0149   87.5888   11.7830 F       1  UNL1       -0.1985
     31 C          61.1389   88.8423   10.4948 C.ar    1  UNL1        0.1728
     32 F          61.2336   89.9818   11.4657 F       1  UNL1       -0.2016
     33 C          60.1534   88.8994    9.3653 C.ar    1  UNL1        0.0641
     34 C          60.0587   87.7599    8.3945 C.ar    1  UNL1        0.1728
     35 F          59.0733   87.8169    7.2649 F       1  UNL1       -0.2016
     36 C          60.9493   86.5634    8.5531 C.ar    1  UNL1        0.2034
     37 F          60.8546   85.4239    7.5823 F       1  UNL1       -0.1985
     38 C          63.6765   81.3276   12.9464 C.3     1  UNL1        0.0321
     39 C          62.3555   80.6265   13.0637 C.3     1  UNL1        0.0024
     40 C          60.0204   80.4018   14.1803 C.3     1  UNL1        0.0000
     41 C          61.3170   81.1384   14.0174 C.3     1  UNL1        0.0001
@<TRIPOS>BOND
     1    40    41    1
     2    41    39    1
     3    39    38    1
     4    38    23    1
     5    23    24    1
     6    24    25    2
     7    24    26    1
     8    26    27    1
     9    27    28    1
    10    28    29   ar
    11    29    30    1
    12    29    31   ar
    13    31    32    1
    14    31    33   ar
    15    33    34   ar
    16    34    35    1
    17    34    36   ar
    18    36    37    1
    19    23     1    1
    20     1     2   ar
    21     2     3   ar
    22     3     6    1
    23     6     7    1
    24     6    11    1
    25    11    13    1
    26    13    14    1
    27    14    15   ar
    28    15    16   ar
    29    16    17   ar
    30    17    18   ar
    31    18    19   ar
    32    19    20   ar
    33    20    21   ar
    34    21    22   ar
    35     6     8    1
    36     8     9    1
    37     8    10    1
    38     3     4   ar
    39     4     5   ar
    40    36    28   ar
    41     5     1   ar
    42    22    14   ar
    43    21    17   ar
    44    11    12    1
@<TRIPOS>MOLECULE
*****
 41 44 0 0 0
SMALL
GASTEIGER

@<TRIPOS>ATOM
      1 N          61.6220   86.8101    9.8609 N.ar    1  UNL1       -0.2252
      2 C          62.4044   88.0798   10.0213 C.ar    1  UNL1        0.1148
      3 C          62.1920   88.5818   11.4188 C.ar    1  UNL1        0.1134
      4 N          61.2784   87.6223   12.1220 N.ar    1  UNL1       -0.1318
      5 N          60.9261   86.5274   11.1593 N.ar    1  UNL1       -0.0638
      6 C          62.7886   89.8249   12.0092 C.3     1  UNL1        0.0813
      7 C          63.5465   88.9910   12.9992 C.3     1  UNL1        0.0220
      8 C          62.0307   90.6589   11.0193 C.3     1  UNL1        0.0187
      9 C          62.7554   91.3185    9.8837 C.3     1  UNL1        0.0017
     10 C          60.5480   90.8332   11.1649 C.3     1  UNL1        0.0017
     11 N          63.3852   91.0681   12.5997 N.3     1  UNL1       -0.2914
     12 H          63.0326   91.1391   13.5542 H       1  UNL1        0.1238
     13 C          64.8753   91.2217   12.6759 C.3     1  UNL1        0.0959
     14 C          65.5330   92.4452   12.1094 C.ar    1  UNL1       -0.0058
     15 C          65.7917   93.6327   12.9884 C.ar    1  UNL1       -0.0013
     16 C          66.4493   94.8561   12.4220 C.ar    1  UNL1        0.0193
     17 C          66.8483   94.8918   10.9765 C.ar    1  UNL1        0.0879
     18 N          67.5085   95.9502   10.1434 N.ar    1  UNL1       -0.2363
     19 C          67.6578   95.4167    8.7495 C.ar    1  UNL1        0.1345
     20 S          67.0899   94.0286    8.7211 S.2     1  UNL1       -0.0645
     21 C          66.5896   93.7042   10.0975 C.ar    1  UNL1        0.0483
     22 C          65.9320   92.4809   10.6639 C.ar    1  UNL1        0.0051
     23 C          61.5484   85.9705    8.6201 C.3     1  UNL1        0.1676
     24 C          62.6612   85.0203    8.2903 C.2     1  UNL1        0.2165
     25 O          62.8223   84.5118    6.8883 O.2     1  UNL1       -0.2901
     26 C          63.6129   84.5786    9.3623 C.3     1  UNL1        0.2712
     27 O          63.6600   83.1376    9.7761 O.3     1  UNL1       -0.4627
     28 C          63.2451   82.7414   11.1621 C.ar    1  UNL1        0.1981
     29 C          63.1544   83.7776   12.2429 C.ar    1  UNL1        0.2034
     30 F          63.4786   85.2100   11.9377 F       1  UNL1       -0.1985
     31 C          62.7395   83.3814   13.6288 C.ar    1  UNL1        0.1728
     32 F          62.6488   84.4176   14.7096 F       1  UNL1       -0.2016
     33 C          62.4153   81.9490   13.9341 C.ar    1  UNL1        0.0641
     34 C          62.5061   80.9128   12.8533 C.ar    1  UNL1        0.1728
     35 F          62.1819   79.4804   13.1585 F       1  UNL1       -0.2016
     36 C          62.9209   81.3090   11.4674 C.ar    1  UNL1        0.2034
     37 F          63.0116   80.2728   10.3866 F       1  UNL1       -0.1985
     38 C          60.3620   86.0812    7.7090 C.3     1  UNL1        0.0321
     39 C          59.3365   87.1515    7.9395 C.3     1  UNL1        0.0024
     40 C          59.1737   89.3489    6.5630 C.3     1  UNL1        0.0000
     41 C          59.7014   88.5936    7.7467 C.3     1  UNL1        0.0001
@<TRIPOS>BOND
     1    40    41    1
     2    41    39    1
     3    39    38    1
     4    38    23    1
     5    23    24    1
     6    24    25    2
     7    24    26    1
     8    26    27    1
     9    27    28    1
    10    28    29   ar
    11    29    30    1
    12    29    31   ar
    13    31    32    1
    14    31    33   ar
    15    33    34   ar
    16    34    35    1
    17    34    36   ar
    18    36    37    1
    19    23     1    1
    20     1     2   ar
    21     2     3   ar
    22     3     6    1
    23     6     7    1
    24     6    11    1
    25    11    13    1
    26    13    14    1
    27    14    15   ar
    28    15    16   ar
    29    16    17   ar
    30    17    18   ar
    31    18    19   ar
    32    19    20   ar
    33    20    21   ar
    34    21    22   ar
    35     6     8    1
    36     8     9    1
    37     8    10    1
    38     3     4   ar
    39     4     5   ar
    40    36    28   ar
    41     5     1   ar
    42    22    14   ar
    43    21    17   ar
    44    11    12    1
@<TRIPOS>MOLECULE
*****
 41 44 0 0 0
SMALL
GASTEIGER

@<TRIPOS>ATOM
      1 N          63.6277   83.7457   13.1580 N.ar    1  UNL1       -0.2252
      2 C          63.2308   85.1512   13.5000 C.ar    1  UNL1        0.1148
      3 C          63.8094   85.4823   14.8438 C.ar    1  UNL1        0.1134
      4 N          64.5638   84.2813   15.3322 N.ar    1  UNL1       -0.1318
      5 N          64.4515   83.2081   14.2904 N.ar    1  UNL1       -0.0638
      6 C          63.6598   86.7854   15.5714 C.3     1  UNL1        0.0813
      7 C          64.5298   87.4557   14.5498 C.3     1  UNL1        0.0220
      8 C          62.7898   86.1151   16.5931 C.3     1  UNL1        0.0187
      9 C          61.8804   84.9944   16.1845 C.3     1  UNL1        0.0017
     10 C          62.8292   86.5655   18.0233 C.3     1  UNL1        0.0017
     11 N          63.5102   88.0886   16.2990 N.3     1  UNL1       -0.2914
     12 H          64.4390   88.3490   16.6306 H       1  UNL1        0.1238
     13 C          62.9532   89.2855   15.5869 C.3     1  UNL1        0.0959
     14 C          63.8810   90.2944   14.9774 C.ar    1  UNL1       -0.0058
     15 C          63.8169   90.5797   13.5062 C.ar    1  UNL1       -0.0013
     16 C          64.7447   91.5886   12.8967 C.ar    1  UNL1        0.0193
     17 C          65.7366   92.3122   13.7585 C.ar    1  UNL1        0.0879
     18 N          66.7708   93.3516   13.4424 N.ar    1  UNL1       -0.2363
     19 C          67.4741   93.7086   14.7183 C.ar    1  UNL1        0.1345
     20 S          66.8745   92.8899   15.8229 S.2     1  UNL1       -0.0645
     21 C          65.8007   92.0268   15.2298 C.ar    1  UNL1        0.0483
     22 C          64.8729   91.0179   15.8392 C.ar    1  UNL1        0.0051
     23 C          63.2645   83.0074   11.9038 C.3     1  UNL1        0.1676
     24 C          63.7854   83.4788   10.5784 C.2     1  UNL1        0.2165
     25 O          64.9356   82.7680    9.9290 O.2     1  UNL1       -0.2901
     26 C          63.1561   84.6608    9.9025 C.3     1  UNL1        0.2712
     27 O          61.9404   85.3062   10.4987 O.3     1  UNL1       -0.4627
     28 C          61.4798   86.6433    9.9987 C.ar    1  UNL1        0.1981
     29 C          60.5203   86.7242    8.8486 C.ar    1  UNL1        0.2034
     30 F          60.0213   85.4680    8.1984 F       1  UNL1       -0.1985
     31 C          60.0598   88.0614    8.3488 C.ar    1  UNL1        0.1728
     32 F          59.1003   88.1423    7.1986 F       1  UNL1       -0.2016
     33 C          60.5588   89.3177    8.9990 C.ar    1  UNL1        0.0641
     34 C          61.5183   89.2368   10.1491 C.ar    1  UNL1        0.1728
     35 F          62.0173   90.4931   10.7993 F       1  UNL1       -0.2016
     36 C          61.9788   87.8996   10.6489 C.ar    1  UNL1        0.2034
     37 F          62.9383   87.8187   11.7991 F       1  UNL1       -0.1985
     38 C          62.3804   81.7978   11.9749 C.3     1  UNL1        0.0321
     39 C          62.3270   80.9807   13.2318 C.3     1  UNL1        0.0024
     40 C          59.9775   80.4126   14.1842 C.3     1  UNL1        0.0000
     41 C          61.2399   81.2212   14.2369 C.3     1  UNL1        0.0001
@<TRIPOS>BOND
     1    40    41    1
     2    41    39    1
     3    39    38    1
     4    38    23    1
     5    23    24    1
     6    24    25    2
     7    24    26    1
     8    26    27    1
     9    27    28    1
    10    28    29   ar
    11    29    30    1
    12    29    31   ar
    13    31    32    1
    14    31    33   ar
    15    33    34   ar
    16    34    35    1
    17    34    36   ar
    18    36    37    1
    19    23     1    1
    20     1     2   ar
    21     2     3   ar
    22     3     6    1
    23     6     7    1
    24     6    11    1
    25    11    13    1
    26    13    14    1
    27    14    15   ar
    28    15    16   ar
    29    16    17   ar
    30    17    18   ar
    31    18    19   ar
    32    19    20   ar
    33    20    21   ar
    34    21    22   ar
    35     6     8    1
    36     8     9    1
    37     8    10    1
    38     3     4   ar
    39     4     5   ar
    40    36    28   ar
    41     5     1   ar
    42    22    14   ar
    43    21    17   ar
    44    11    12    1
@<TRIPOS>MOLECULE
*****
 41 44 0 0 0
SMALL
GASTEIGER

@<TRIPOS>ATOM
      1 N          61.4332   86.7263    9.4986 N.ar    1  UNL1       -0.2252
      2 C          62.3134   87.8962    9.8252 C.ar    1  UNL1        0.1148
      3 C          61.9712   88.3614   11.2096 C.ar    1  UNL1        0.1134
      4 N          60.8796   87.4791   11.7385 N.ar    1  UNL1       -0.1318
      5 N          60.5471   86.4685   10.6811 N.ar    1  UNL1       -0.0638
      6 C          62.6088   89.5078   11.9373 C.3     1  UNL1        0.0813
      7 C          63.2614   88.5441   12.8836 C.3     1  UNL1        0.0220
      8 C          61.9561   90.4714   10.9910 C.3     1  UNL1        0.0187
      9 C          60.4635   90.6189   10.9818 C.3     1  UNL1        0.0017
     10 C          62.7962   91.2874   10.0538 C.3     1  UNL1        0.0017
     11 N          63.2463   90.6541   12.6649 N.3     1  UNL1       -0.2914
     12 H          62.6505   91.4677   12.5121 H       1  UNL1        0.1238
     13 C          63.4856   90.5641   14.1429 C.3     1  UNL1        0.0959
     14 C          64.6637   91.2618   14.7557 C.ar    1  UNL1       -0.0058
     15 C          64.5297   91.9248   16.0945 C.ar    1  UNL1       -0.0013
     16 C          65.7078   92.6224   16.7073 C.ar    1  UNL1        0.0193
     17 C          67.0199   92.6570   15.9812 C.ar    1  UNL1        0.0879
     18 N          68.3458   93.2640   16.3327 N.ar    1  UNL1       -0.2363
     19 C          69.2992   92.9760   15.2110 C.ar    1  UNL1        0.1345
     20 S          68.5626   92.1912   14.1664 S.2     1  UNL1       -0.0645
     21 C          67.1539   91.9940   14.6423 C.ar    1  UNL1        0.0483
     22 C          65.9758   91.2964   14.0296 C.ar    1  UNL1        0.0051
     23 C          61.4383   85.9504    8.2149 C.3     1  UNL1        0.1676
     24 C          62.5722   85.0182    7.9064 C.2     1  UNL1        0.2165
     25 O          62.6932   84.4107    6.5402 O.2     1  UNL1       -0.2901
     26 C          63.5852   84.6933    8.9639 C.3     1  UNL1        0.2712
     27 O          63.7619   83.2764    9.4233 O.3     1  UNL1       -0.4627
     28 C          63.3229   82.8741   10.8000 C.ar    1  UNL1        0.1981
     29 C          63.0481   81.4321   11.1082 C.ar    1  UNL1        0.2034
     30 F          63.2123   80.3922   10.0397 F       1  UNL1       -0.1985
     31 C          62.6092   81.0299   12.4850 C.ar    1  UNL1        0.1728
     32 F          62.3343   79.5879   12.7932 F       1  UNL1       -0.2016
     33 C          62.4450   82.0697   13.5536 C.ar    1  UNL1        0.0641
     34 C          62.7198   83.5117   13.2454 C.ar    1  UNL1        0.1728
     35 F          62.5556   84.5516   14.3139 F       1  UNL1       -0.2016
     36 C          63.1588   83.9139   11.8686 C.ar    1  UNL1        0.2034
     37 F          63.4336   85.3559   11.5604 F       1  UNL1       -0.1985
     38 C          60.3094   86.1067    7.2397 C.3     1  UNL1        0.0321
     39 C          59.1384   86.9797    7.5815 C.3     1  UNL1        0.0024
     40 C          59.3185   89.3027    6.4319 C.3     1  UNL1        0.0000
     41 C          59.3141   88.4663    7.6772 C.3     1  UNL1        0.0001
@<TRIPOS>BOND
     1    40    41    1
     2    41    39    1
     3    39    38    1
     4    38    23    1
     5    23    24    1
     6    24    25    2
     7    24    26    1
     8    26    27    1
     9    27    28    1
    10    28    29   ar
    11    29    30    1
    12    29    31   ar
    13    31    32    1
    14    31    33   ar
    15    33    34   ar
    16    34    35    1
    17    34    36   ar
    18    36    37    1
    19    23     1    1
    20     1     2   ar
    21     2     3   ar
    22     3     6    1
    23     6     7    1
    24     6    11    1
    25    11    13    1
    26    13    14    1
    27    14    15   ar
    28    15    16   ar
    29    16    17   ar
    30    17    18   ar
    31    18    19   ar
    32    19    20   ar
    33    20    21   ar
    34    21    22   ar
    35     6     8    1
    36     8     9    1
    37     8    10    1
    38     3     4   ar
    39     4     5   ar
    40    36    28   ar
    41     5     1   ar
    42    22    14   ar
    43    21    17   ar
    44    11    12    1
@<TRIPOS>MOLECULE
*****
 41 44 0 0 0
SMALL
GASTEIGER

@<TRIPOS>ATOM
      1 N          63.9633   89.8864   14.5301 N.ar    1  UNL1       -0.2252
      2 C          64.2468   88.4158   14.4473 C.ar    1  UNL1        0.1148
      3 C          63.7010   87.7682   15.6854 C.ar    1  UNL1        0.1134
      4 N          63.0803   88.8386   16.5332 N.ar    1  UNL1       -0.1318
      5 N          63.2424   90.1477   15.8192 N.ar    1  UNL1       -0.0638
      6 C          63.7647   86.3067   16.0173 C.3     1  UNL1        0.0813
      7 C          64.8798   86.1310   15.0295 C.3     1  UNL1        0.0220
      8 C          62.6497   86.4824   17.0051 C.3     1  UNL1        0.0187
      9 C          62.9609   86.7146   18.4540 C.3     1  UNL1        0.0017
     10 C          61.2234   86.4260   16.5441 C.3     1  UNL1        0.0017
     11 N          63.8285   84.8453   16.3492 N.3     1  UNL1       -0.2914
     12 H          63.9305   84.7775   17.3618 H       1  UNL1        0.1238
     13 C          62.6960   83.9392   15.9665 C.3     1  UNL1        0.0959
     14 C          62.7472   83.1797   14.6739 C.ar    1  UNL1       -0.0058
     15 C          61.9411   81.9257   14.5084 C.ar    1  UNL1       -0.0013
     16 C          61.9922   81.1662   13.2158 C.ar    1  UNL1        0.0193
     17 C          62.8496   81.6610   12.0888 C.ar    1  UNL1        0.0879
     18 N          63.0993   81.1280   10.7091 N.ar    1  UNL1       -0.2363
     19 C          64.0597   82.0528   10.0218 C.ar    1  UNL1        0.1345
     20 S          64.4036   83.1573   10.9768 S.2     1  UNL1       -0.0645
     21 C          63.6557   82.9151   12.2543 C.ar    1  UNL1        0.0483
     22 C          63.6045   83.6745   13.5468 C.ar    1  UNL1        0.0051
     23 C          64.3355   90.9151   13.5038 C.3     1  UNL1        0.1676
     24 C          63.5612   91.0108   12.2226 C.2     1  UNL1        0.2165
     25 O          64.2452   91.4579   10.9647 O.2     1  UNL1       -0.2901
     26 C          62.1032   90.6595   12.1993 C.3     1  UNL1        0.2712
     27 O          61.6765   89.2232   12.2705 O.3     1  UNL1       -0.4627
     28 C          61.3891   88.4629   11.0099 C.ar    1  UNL1        0.1981
     29 C          60.4277   89.0186   10.0015 C.ar    1  UNL1        0.2034
     30 F          59.7537   90.3347   10.2537 F       1  UNL1       -0.1985
     31 C          60.1404   88.2582    8.7408 C.ar    1  UNL1        0.1728
     32 F          59.1790   88.8139    7.7324 F       1  UNL1       -0.2016
     33 C          60.8144   86.9421    8.4885 C.ar    1  UNL1        0.0641
     34 C          61.7758   86.3864    9.4969 C.ar    1  UNL1        0.1728
     35 F          62.4499   85.0703    9.2447 F       1  UNL1       -0.2016
     36 C          62.0632   87.1468   10.7576 C.ar    1  UNL1        0.2034
     37 F          63.0245   86.5911   11.7660 F       1  UNL1       -0.1985
     38 C          65.4819   91.8482   13.7588 C.3     1  UNL1        0.0321
     39 C          66.5669   91.4587   14.7186 C.3     1  UNL1        0.0024
     40 C          68.5044   92.4192   16.1585 C.3     1  UNL1        0.0000
     41 C          67.0683   92.4504   15.7262 C.3     1  UNL1        0.0001
@<TRIPOS>BOND
     1    40    41    1
     2    41    39    1
     3    39    38    1
     4    38    23    1
     5    23    24    1
     6    24    25    2
     7    24    26    1
     8    26    27    1
     9    27    28    1
    10    28    29   ar
    11    29    30    1
    12    29    31   ar
    13    31    32    1
    14    31    33   ar
    15    33    34   ar
    16    34    35    1
    17    34    36   ar
    18    36    37    1
    19    23     1    1
    20     1     2   ar
    21     2     3   ar
    22     3     6    1
    23     6     7    1
    24     6    11    1
    25    11    13    1
    26    13    14    1
    27    14    15   ar
    28    15    16   ar
    29    16    17   ar
    30    17    18   ar
    31    18    19   ar
    32    19    20   ar
    33    20    21   ar
    34    21    22   ar
    35     6     8    1
    36     8     9    1
    37     8    10    1
    38     3     4   ar
    39     4     5   ar
    40    36    28   ar
    41     5     1   ar
    42    22    14   ar
    43    21    17   ar
    44    11    12    1
@<TRIPOS>MOLECULE
*****
 41 44 0 0 0
SMALL
GASTEIGER

@<TRIPOS>ATOM
      1 N          63.9454   89.5805   14.4451 N.ar    1  UNL1       -0.2252
      2 C          64.3201   88.1372   14.2821 C.ar    1  UNL1        0.1148
      3 C          63.8190   87.3899   15.4823 C.ar    1  UNL1        0.1134
      4 N          63.1347   88.3713   16.3870 N.ar    1  UNL1       -0.1318
      5 N          63.2127   89.7251   15.7459 N.ar    1  UNL1       -0.0638
      6 C          63.9750   85.9193   15.7337 C.3     1  UNL1        0.0813
      7 C          65.1742   85.8926   14.8331 C.3     1  UNL1        0.0220
      8 C          62.7757   85.9461   16.6343 C.3     1  UNL1        0.0187
      9 C          62.9273   86.3405   18.0735 C.3     1  UNL1        0.0017
     10 C          61.4249   85.5784   16.0956 C.3     1  UNL1        0.0017
     11 N          64.1309   84.4488   15.9850 N.3     1  UNL1       -0.2914
     12 H          63.8095   84.2772   16.9377 H       1  UNL1        0.1238
     13 C          63.4266   83.4587   15.1055 C.3     1  UNL1        0.0959
     14 C          63.4745   83.6133   13.6141 C.ar    1  UNL1       -0.0058
     15 C          64.3583   82.7198   12.7955 C.ar    1  UNL1       -0.0013
     16 C          64.4062   82.8744   11.3042 C.ar    1  UNL1        0.0193
     17 C          63.5702   83.9226   10.6317 C.ar    1  UNL1        0.0879
     18 N          63.4106   84.3070    9.1906 N.ar    1  UNL1       -0.2363
     19 C          62.4280   85.4381    9.1187 C.ar    1  UNL1        0.1345
     20 S          61.9804   85.7528   10.5153 S.2     1  UNL1       -0.0645
     21 C          62.6863   84.8162   11.4504 C.ar    1  UNL1        0.0483
     22 C          62.6385   84.6616   12.9416 C.ar    1  UNL1        0.0051
     23 C          64.2498   90.6851   13.4771 C.3     1  UNL1        0.1676
     24 C          65.4119   91.6007   13.7251 C.2     1  UNL1        0.2165
     25 O          66.4929   91.1977   14.6837 O.2     1  UNL1       -0.2901
     26 C          65.4929   92.9192   13.0146 C.3     1  UNL1        0.2712
     27 O          66.8280   93.4779   12.6202 O.3     1  UNL1       -0.4627
     28 C          67.1156   93.7881   11.1811 C.ar    1  UNL1        0.1981
     29 C          67.9094   92.8240   10.3501 C.ar    1  UNL1        0.2034
     30 F          68.4156   91.5497   10.9583 F       1  UNL1       -0.1985
     31 C          68.1969   93.1343    8.9110 C.ar    1  UNL1        0.1728
     32 F          68.9907   92.1703    8.0801 F       1  UNL1       -0.2016
     33 C          67.6907   94.4086    8.3028 C.ar    1  UNL1        0.0641
     34 C          66.8969   95.3727    9.1337 C.ar    1  UNL1        0.1728
     35 F          66.3907   96.6470    8.5256 F       1  UNL1       -0.2016
     36 C          66.6094   95.0624   10.5728 C.ar    1  UNL1        0.2034
     37 F          65.8156   96.0264   11.4038 F       1  UNL1       -0.1985
     38 C          63.3922   90.8743   12.2611 C.3     1  UNL1        0.0321
     39 C          62.4655   89.7806   11.8193 C.3     1  UNL1        0.0024
     40 C          60.0121   90.3227   11.1584 C.3     1  UNL1        0.0000
     41 C          61.4340   90.0521   10.7646 C.3     1  UNL1        0.0001
@<TRIPOS>BOND
     1    40    41    1
     2    41    39    1
     3    39    38    1
     4    38    23    1
     5    23    24    1
     6    24    25    2
     7    24    26    1
     8    26    27    1
     9    27    28    1
    10    28    29   ar
    11    29    30    1
    12    29    31   ar
    13    31    32    1
    14    31    33   ar
    15    33    34   ar
    16    34    35    1
    17    34    36   ar
    18    36    37    1
    19    23     1    1
    20     1     2   ar
    21     2     3   ar
    22     3     6    1
    23     6     7    1
    24     6    11    1
    25    11    13    1
    26    13    14    1
    27    14    15   ar
    28    15    16   ar
    29    16    17   ar
    30    17    18   ar
    31    18    19   ar
    32    19    20   ar
    33    20    21   ar
    34    21    22   ar
    35     6     8    1
    36     8     9    1
    37     8    10    1
    38     3     4   ar
    39     4     5   ar
    40    36    28   ar
    41     5     1   ar
    42    22    14   ar
    43    21    17   ar
    44    11    12    1
@<TRIPOS>MOLECULE
*****
 41 44 0 0 0
SMALL
GASTEIGER

@<TRIPOS>ATOM
      1 N          63.7140   90.5507   12.7505 N.ar    1  UNL1       -0.2252
      2 C          62.7465   89.4677   12.3749 C.ar    1  UNL1        0.1148
      3 C          62.1600   89.8133   11.0383 C.ar    1  UNL1        0.1134
      4 N          62.7650   91.1099   10.5879 N.ar    1  UNL1       -0.1318
      5 N          63.7254   91.5656   11.6461 N.ar    1  UNL1       -0.0638
      6 C          61.1464   89.0044   10.2845 C.3     1  UNL1        0.0813
      7 C          62.2091   88.5740    9.3174 C.3     1  UNL1        0.0220
      8 C          60.0837   89.4347   11.2516 C.3     1  UNL1        0.0187
      9 C          59.5729   90.8448   11.2261 C.3     1  UNL1        0.0017
     10 C          59.5316   88.4549   12.2443 C.3     1  UNL1        0.0017
     11 N          60.1328   88.1954    9.5307 N.3     1  UNL1       -0.2914
     12 H          59.6869   88.8276    8.8659 H       1  UNL1        0.1238
     13 C          60.5647   86.9861    8.7554 C.3     1  UNL1        0.0959
     14 C          61.5421   86.0197    9.3562 C.ar    1  UNL1       -0.0058
     15 C          62.5287   85.3079    8.4789 C.ar    1  UNL1       -0.0013
     16 C          63.5061   84.3416    9.0797 C.ar    1  UNL1        0.0193
     17 C          63.4968   84.0871   10.5579 C.ar    1  UNL1        0.0879
     18 N          64.3333   83.1968   11.4283 N.ar    1  UNL1       -0.2363
     19 C          63.8635   83.3584   12.8437 C.ar    1  UNL1        0.1345
     20 S          62.7368   84.3486   12.8480 S.2     1  UNL1       -0.0645
     21 C          62.5101   84.7990   11.4353 C.ar    1  UNL1        0.0483
     22 C          61.5328   85.7653   10.8344 C.ar    1  UNL1        0.0051
     23 C          64.5273   90.6087   14.0096 C.3     1  UNL1        0.1676
     24 C          65.4716   91.7511   14.2406 C.2     1  UNL1        0.2165
     25 O          65.4001   92.5369   15.5163 O.2     1  UNL1       -0.2901
     26 C          66.4874   92.1076   13.1961 C.3     1  UNL1        0.2712
     27 O          66.6884   93.5414   12.8040 O.3     1  UNL1       -0.4627
     28 C          66.9669   93.8956   11.3733 C.ar    1  UNL1        0.1981
     29 C          67.7410   92.9500   10.5035 C.ar    1  UNL1        0.2034
     30 F          68.2367   91.6502   11.0644 F       1  UNL1       -0.1985
     31 C          68.0194   93.3043    9.0728 C.ar    1  UNL1        0.1728
     32 F          68.7935   92.3587    8.2030 F       1  UNL1       -0.2016
     33 C          67.5237   94.6042    8.5118 C.ar    1  UNL1        0.0641
     34 C          66.7496   95.5498    9.3816 C.ar    1  UNL1        0.1728
     35 F          66.2539   96.8497    8.8207 F       1  UNL1       -0.2016
     36 C          66.4712   95.1955   10.8123 C.ar    1  UNL1        0.2034
     37 F          65.6970   96.1411   11.6821 F       1  UNL1       -0.1985
     38 C          64.3964   89.5243   15.0376 C.3     1  UNL1        0.0321
     39 C          63.1675   89.4475   15.8945 C.3     1  UNL1        0.0024
     40 C          62.8370   87.2151   17.1817 C.3     1  UNL1        0.0000
     41 C          63.1956   88.6717   17.1780 C.3     1  UNL1        0.0001
@<TRIPOS>BOND
     1    40    41    1
     2    41    39    1
     3    39    38    1
     4    38    23    1
     5    23    24    1
     6    24    25    2
     7    24    26    1
     8    26    27    1
     9    27    28    1
    10    28    29   ar
    11    29    30    1
    12    29    31   ar
    13    31    32    1
    14    31    33   ar
    15    33    34   ar
    16    34    35    1
    17    34    36   ar
    18    36    37    1
    19    23     1    1
    20     1     2   ar
    21     2     3   ar
    22     3     6    1
    23     6     7    1
    24     6    11    1
    25    11    13    1
    26    13    14    1
    27    14    15   ar
    28    15    16   ar
    29    16    17   ar
    30    17    18   ar
    31    18    19   ar
    32    19    20   ar
    33    20    21   ar
    34    21    22   ar
    35     6     8    1
    36     8     9    1
    37     8    10    1
    38     3     4   ar
    39     4     5   ar
    40    36    28   ar
    41     5     1   ar
    42    22    14   ar
    43    21    17   ar
    44    11    12    1
@<TRIPOS>MOLECULE
*****
 41 44 0 0 0
SMALL
GASTEIGER

@<TRIPOS>ATOM
      1 N          61.2695   87.3276    9.8967 N.ar    1  UNL1       -0.2252
      2 C          62.2958   88.4081   10.0679 C.ar    1  UNL1        0.1148
      3 C          61.9085   89.2303   11.2612 C.ar    1  UNL1        0.1134
      4 N          60.6429   88.6580   11.8274 N.ar    1  UNL1       -0.1318
      5 N          60.2480   87.4821   10.9841 N.ar    1  UNL1       -0.0638
      6 C          62.6557   90.4166   11.7946 C.3     1  UNL1        0.0813
      7 C          62.2277   91.2217   10.6036 C.3     1  UNL1        0.0220
      8 C          63.0836   89.6115   12.9857 C.3     1  UNL1        0.0187
      9 C          63.5603   88.2007   12.8053 C.3     1  UNL1        0.0017
     10 C          63.0349   90.2171   14.3571 C.3     1  UNL1        0.0017
     11 N          63.4028   91.6028   12.3280 N.3     1  UNL1       -0.2914
     12 H          63.6739   91.3744   13.2844 H       1  UNL1        0.1238
     13 C          64.6401   92.0854   11.6307 C.3     1  UNL1        0.0959
     14 C          65.9341   92.1855   12.3829 C.ar    1  UNL1       -0.0058
     15 C          67.2328   91.9256   11.6789 C.ar    1  UNL1       -0.0013
     16 C          68.5268   92.0257   12.4310 C.ar    1  UNL1        0.0193
     17 C          68.5219   92.3857   13.8872 C.ar    1  UNL1        0.0879
     18 N          69.6311   92.5581   14.8821 N.ar    1  UNL1       -0.2363
     19 C          69.0178   92.9246   16.2011 C.ar    1  UNL1        0.1345
     20 S          67.5296   92.9787   16.0212 S.2     1  UNL1       -0.0645
     21 C          67.2231   92.6457   14.5911 C.ar    1  UNL1        0.0483
     22 C          65.9292   92.5456   13.8390 C.ar    1  UNL1        0.0051
     23 C          61.2655   86.2771    8.8260 C.3     1  UNL1        0.1676
     24 C          62.3870   85.2842    8.7451 C.2     1  UNL1        0.2165
     25 O          62.7502   84.6690    7.4262 O.2     1  UNL1       -0.2901
     26 C          63.1452   84.9065    9.9830 C.3     1  UNL1        0.2712
     27 O          63.7399   83.5352   10.1092 O.3     1  UNL1       -0.4627
     28 C          63.5036   82.7267   11.3503 C.ar    1  UNL1        0.1981
     29 C          63.6926   83.3524   12.7004 C.ar    1  UNL1        0.2034
     30 F          64.1179   84.7867   12.8094 F       1  UNL1       -0.1985
     31 C          63.4562   82.5437   13.9414 C.ar    1  UNL1        0.1728
     32 F          63.6452   83.1694   15.2916 F       1  UNL1       -0.2016
     33 C          63.0309   81.1094   13.8325 C.ar    1  UNL1        0.0641
     34 C          62.8419   80.4837   12.4824 C.ar    1  UNL1        0.1728
     35 F          62.4166   79.0494   12.3733 F       1  UNL1       -0.2016
     36 C          63.0783   81.2924   11.2413 C.ar    1  UNL1        0.2034
     37 F          62.8893   80.6667    9.8912 F       1  UNL1       -0.1985
     38 C          60.1399   86.2194    7.8362 C.3     1  UNL1        0.0321
     39 C          59.2073   87.3854    7.6921 C.3     1  UNL1        0.0024
     40 C          59.0563   89.6124    6.3625 C.3     1  UNL1        0.0000
     41 C          59.7517   88.7456    7.3702 C.3     1  UNL1        0.0001
@<TRIPOS>BOND
     1    40    41    1
     2    41    39    1
     3    39    38    1
     4    38    23    1
     5    23    24    1
     6    24    25    2
     7    24    26    1
     8    26    27    1
     9    27    28    1
    10    28    29   ar
    11    29    30    1
    12    29    31   ar
    13    31    32    1
    14    31    33   ar
    15    33    34   ar
    16    34    35    1
    17    34    36   ar
    18    36    37    1
    19    23     1    1
    20     1     2   ar
    21     2     3   ar
    22     3     6    1
    23     6     7    1
    24     6    11    1
    25    11    13    1
    26    13    14    1
    27    14    15   ar
    28    15    16   ar
    29    16    17   ar
    30    17    18   ar
    31    18    19   ar
    32    19    20   ar
    33    20    21   ar
    34    21    22   ar
    35     6     8    1
    36     8     9    1
    37     8    10    1
    38     3     4   ar
    39     4     5   ar
    40    36    28   ar
    41     5     1   ar
    42    22    14   ar
    43    21    17   ar
    44    11    12    1
