@<TRIPOS>MOLECULE
*****
 34 37 0 0 0
SMALL
GASTEIGER

@<TRIPOS>ATOM
      1 N          63.7131   87.2098   15.6960 N.am    1  UNL1       -0.2681
      2 C          64.1583   88.3012   14.7684 C.2     1  UNL1        0.3082
      3 O          64.2602   88.0382   13.2951 O.2     1  UNL1       -0.2522
      4 N          64.5016   89.6557   15.3140 N.am    1  UNL1       -0.2681
      5 H          63.6462   87.3824   16.6629 H       1  UNL1        0.1564
      6 H          64.4347   89.8283   16.2809 H       1  UNL1        0.1564
      7 C          63.3788   84.1511   13.1894 C.ar    1  UNL1        0.0548
      8 C          62.6830   83.1464   14.0594 C.ar    1  UNL1        0.0046
      9 C          62.3307   83.4963   15.4748 C.ar    1  UNL1        0.0014
     10 C          62.6740   84.8507   16.0203 C.ar    1  UNL1        0.0147
     11 C          63.3697   85.8553   15.1504 C.ar    1  UNL1        0.0517
     12 C          63.7221   85.5055   13.7350 C.ar    1  UNL1        0.0192
     13 N          62.9914   84.4413   10.6368 N.am    1  UNL1       -0.2761
     14 C          63.7311   83.8012   11.7741 C.2     1  UNL1        0.2491
     15 O          64.8232   82.8113   11.4957 O.2     1  UNL1       -0.2699
     16 C          62.9827   85.0267    8.1055 C.3     1  UNL1        0.0233
     17 C          63.3437   84.0915    9.2214 C.3     1  UNL1        0.0938
     18 C          61.8993   85.4312   10.9151 C.3     1  UNL1        0.0938
     19 C          62.1790   86.9020   10.8231 C.3     1  UNL1        0.0233
     20 C          64.9468   90.7470   14.3864 C.ar    1  UNL1        0.0516
     21 C          66.1497   91.5763   14.7265 C.ar    1  UNL1        0.0147
     22 C          66.5948   92.6677   13.7989 C.ar    1  UNL1        0.0010
     23 C          65.8372   92.9300   12.5310 C.ar    1  UNL1       -0.0014
     24 C          64.6344   92.1008   12.1909 C.ar    1  UNL1        0.0010
     25 C          64.1892   91.0093   13.1186 C.ar    1  UNL1        0.0147
     26 C          66.2824   94.0214   11.6034 C.2     1  UNL1        0.0158
     27 C          65.8942   95.4440   11.8781 C.2     1  UNL1        0.0487
     28 C          66.3394   96.5354   10.9506 C.2     1  UNL1        0.2355
     29 N          67.1729   96.2044    9.7481 N.2     1  UNL1       -0.0325
     30 C          67.5612   94.7818    9.4734 C.2     1  UNL1        0.3799
     31 N          68.3696   94.1561    8.3757 N.2     1  UNL1       -0.0106
     32 C          68.4240   92.6780    8.6249 C.2     1  UNL1        0.3351
     33 N          67.6492   92.3901    9.8766 N.2     1  UNL1       -0.2103
     34 C          67.1159   93.6903   10.4011 C.3     1  UNL1        0.2404
@<TRIPOS>BOND
     1    16    17    1
     2    17    13    1
     3    13    18    1
     4    18    19    1
     5    13    14   am
     6    14    15    2
     7    14     7    1
     8     7     8   ar
     9     8     9   ar
    10     9    10   ar
    11    10    11   ar
    12    11     1    1
    13     1     2   am
    14     2     3    2
    15     2     4   am
    16     4    20    1
    17    20    21   ar
    18    21    22   ar
    19    22    23   ar
    20    23    26    1
    21    26    27    2
    22    27    28    1
    23    28    29    2
    24    29    30    1
    25    30    31    2
    26    31    32    1
    27    32    33    2
    28    33    34    1
    29    23    24   ar
    30    24    25   ar
    31    11    12   ar
    32    12     7   ar
    33    25    20   ar
    34    34    26    1
    35    34    30    1
    36     1     5    1
    37     4     6    1
@<TRIPOS>MOLECULE
*****
 34 37 0 0 0
SMALL
GASTEIGER

@<TRIPOS>ATOM
      1 N          58.8926   90.4972    6.4203 N.am    1  UNL1       -0.2681
      2 C          59.7387   90.9251    5.2581 C.2     1  UNL1        0.3082
      3 O          61.0433   90.2365    4.9864 O.2     1  UNL1       -0.2522
      4 N          59.2803   92.0417    4.3675 N.am    1  UNL1       -0.2681
      5 H          58.0363   90.9491    6.5986 H       1  UNL1        0.1564
      6 H          58.4240   92.4937    4.5458 H       1  UNL1        0.1564
      7 C          60.2624   88.5585    9.6008 C.ar    1  UNL1        0.0548
      8 C          60.2678   87.1474    9.0920 C.ar    1  UNL1        0.0046
      9 C          59.8148   86.8529    7.6927 C.ar    1  UNL1        0.0014
     10 C          59.3564   87.9695    6.8022 C.ar    1  UNL1        0.0147
     11 C          59.3510   89.3806    7.3109 C.ar    1  UNL1        0.0517
     12 C          59.8040   89.6751    8.7102 C.ar    1  UNL1        0.0192
     13 N          61.9758   89.6325   11.2320 N.am    1  UNL1       -0.2761
     14 C          60.7153   88.8530   11.0001 C.2     1  UNL1        0.2491
     15 O          59.9079   88.3680   12.1675 O.2     1  UNL1       -0.2699
     16 C          63.6758   89.2877   13.1662 C.3     1  UNL1        0.0233
     17 C          62.4288   89.9270   12.6313 C.3     1  UNL1        0.0938
     18 C          62.7831   90.1175   10.0646 C.3     1  UNL1        0.0938
     19 C          63.4218   91.4741   10.1063 C.3     1  UNL1        0.0233
     20 C          60.1264   92.4697    3.2053 C.ar    1  UNL1        0.0516
     21 C          61.6135   92.2775    3.2492 C.ar    1  UNL1        0.0147
     22 C          62.4596   92.7054    2.0870 C.ar    1  UNL1        0.0010
     23 C          61.8188   93.3256    0.8808 C.ar    1  UNL1       -0.0014
     24 C          60.3318   93.5178    0.8368 C.ar    1  UNL1        0.0010
     25 C          59.4857   93.0898    1.9992 C.ar    1  UNL1        0.0147
     26 C          62.6650   93.7536   -0.2815 C.2     1  UNL1        0.0158
     27 C          62.4074   93.1862   -1.6459 C.2     1  UNL1        0.0487
     28 C          63.2536   93.6141   -2.8081 C.2     1  UNL1        0.2355
     29 N          64.3574   94.6095   -2.6060 N.2     1  UNL1       -0.0325
     30 C          64.6150   95.1769   -1.2415 C.2     1  UNL1        0.3799
     31 N          65.6240   96.1673   -0.7405 N.2     1  UNL1       -0.0106
     32 C          65.4013   96.3515    0.7314 C.2     1  UNL1        0.3351
     33 N          64.2548   95.4749    1.1401 N.2     1  UNL1       -0.2103
     34 C          63.7688   94.7490   -0.0793 C.3     1  UNL1        0.2404
@<TRIPOS>BOND
     1    16    17    1
     2    17    13    1
     3    13    18    1
     4    18    19    1
     5    13    14   am
     6    14    15    2
     7    14     7    1
     8     7     8   ar
     9     8     9   ar
    10     9    10   ar
    11    10    11   ar
    12    11     1    1
    13     1     2   am
    14     2     3    2
    15     2     4   am
    16     4    20    1
    17    20    21   ar
    18    21    22   ar
    19    22    23   ar
    20    23    26    1
    21    26    27    2
    22    27    28    1
    23    28    29    2
    24    29    30    1
    25    30    31    2
    26    31    32    1
    27    32    33    2
    28    33    34    1
    29    23    24   ar
    30    24    25   ar
    31    11    12   ar
    32    12     7   ar
    33    25    20   ar
    34    34    26    1
    35    34    30    1
    36     1     5    1
    37     4     6    1
@<TRIPOS>MOLECULE
*****
 34 37 0 0 0
SMALL
GASTEIGER

@<TRIPOS>ATOM
      1 N          58.9123   90.2289    6.2948 N.am    1  UNL1       -0.2681
      2 C          59.8885   90.8534    5.3425 C.2     1  UNL1        0.3082
      3 O          61.3205   90.4073    5.3366 O.2     1  UNL1       -0.2522
      4 N          59.4326   91.9242    4.3961 N.am    1  UNL1       -0.2681
      5 H          57.9724   90.5217    6.2987 H       1  UNL1        0.1564
      6 H          58.4927   92.2171    4.3999 H       1  UNL1        0.1564
      7 C          60.2462   88.4481    9.5811 C.ar    1  UNL1        0.0548
      8 C          60.2798   87.0166    9.1340 C.ar    1  UNL1        0.0046
      9 C          59.8576   86.6559    7.7406 C.ar    1  UNL1        0.0014
     10 C          59.4017   87.7267    6.7942 C.ar    1  UNL1        0.0147
     11 C          59.3682   89.1581    7.2413 C.ar    1  UNL1        0.0517
     12 C          59.7904   89.5189    8.6346 C.ar    1  UNL1        0.0192
     13 N          61.9120   89.6179   11.1956 N.am    1  UNL1       -0.2761
     14 C          60.6684   88.8087   10.9744 C.2     1  UNL1        0.2491
     15 O          59.8472   88.3603   12.1468 O.2     1  UNL1       -0.2699
     16 C          63.6068   89.4215   13.1550 C.3     1  UNL1        0.0233
     17 C          62.3343   89.9786   12.5890 C.3     1  UNL1        0.0938
     18 C          62.7333   90.0664   10.0233 C.3     1  UNL1        0.0938
     19 C          63.3653   91.4267   10.0268 C.3     1  UNL1        0.0233
     20 C          60.4088   92.5487    3.4438 C.ar    1  UNL1        0.0516
     21 C          59.9976   93.7299    2.6155 C.ar    1  UNL1        0.0147
     22 C          60.9737   94.3544    1.6632 C.ar    1  UNL1        0.0010
     23 C          62.3612   93.7979    1.5391 C.ar    1  UNL1       -0.0014
     24 C          62.7724   92.6168    2.3673 C.ar    1  UNL1        0.0010
     25 C          61.7962   91.9923    3.3197 C.ar    1  UNL1        0.0147
     26 C          63.3374   94.4224    0.5868 C.2     1  UNL1        0.0158
     27 C          64.3926   95.3569    1.0999 C.2     1  UNL1        0.0487
     28 C          65.3687   95.9815    0.1477 C.2     1  UNL1        0.2355
     29 N          65.2898   95.6716   -1.3179 N.2     1  UNL1       -0.0325
     30 C          64.2346   94.7371   -1.8311 C.2     1  UNL1        0.3799
     31 N          63.9136   94.2469   -3.2119 N.2     1  UNL1       -0.0106
     32 C          62.7389   93.3193   -3.1129 C.2     1  UNL1        0.3351
     33 N          62.3340   93.2363   -1.6710 N.2     1  UNL1       -0.2103
     34 C          63.2584   94.1126   -0.8788 C.3     1  UNL1        0.2404
@<TRIPOS>BOND
     1    16    17    1
     2    17    13    1
     3    13    18    1
     4    18    19    1
     5    13    14   am
     6    14    15    2
     7    14     7    1
     8     7     8   ar
     9     8     9   ar
    10     9    10   ar
    11    10    11   ar
    12    11     1    1
    13     1     2   am
    14     2     3    2
    15     2     4   am
    16     4    20    1
    17    20    21   ar
    18    21    22   ar
    19    22    23   ar
    20    23    26    1
    21    26    27    2
    22    27    28    1
    23    28    29    2
    24    29    30    1
    25    30    31    2
    26    31    32    1
    27    32    33    2
    28    33    34    1
    29    23    24   ar
    30    24    25   ar
    31    11    12   ar
    32    12     7   ar
    33    25    20   ar
    34    34    26    1
    35    34    30    1
    36     1     5    1
    37     4     6    1
@<TRIPOS>MOLECULE
*****
 34 37 0 0 0
SMALL
GASTEIGER

@<TRIPOS>ATOM
      1 N          58.8876   88.8817    6.3217 N.am    1  UNL1       -0.2681
      2 C          59.7620   88.5098    7.4822 C.2     1  UNL1        0.3082
      3 O          60.8670   89.4280    7.9133 O.2     1  UNL1       -0.2522
      4 N          59.5315   87.2196    8.2119 N.am    1  UNL1       -0.2681
      5 H          58.1623   88.2790    6.0389 H       1  UNL1        0.1564
      6 H          58.8063   86.6169    7.9290 H       1  UNL1        0.1564
      7 C          60.6360   91.6879    4.1266 C.ar    1  UNL1        0.0548
      8 C          59.5789   92.7523    4.1329 C.ar    1  UNL1        0.0046
      9 C          58.2915   92.5264    4.8689 C.ar    1  UNL1        0.0014
     10 C          58.0611   91.2362    5.5984 C.ar    1  UNL1        0.0147
     11 C          59.1181   90.1719    5.5921 C.ar    1  UNL1        0.0517
     12 C          60.4055   90.3977    4.8562 C.ar    1  UNL1        0.0192
     13 N          61.9407   92.7596    2.1520 N.am    1  UNL1       -0.2761
     14 C          61.9233   91.9138    3.3907 C.2     1  UNL1        0.2491
     15 O          63.1933   91.2939    3.8935 O.2     1  UNL1       -0.2699
     16 C          64.1259   94.1219    1.8067 C.3     1  UNL1        0.0233
     17 C          63.2281   92.9855    1.4160 C.3     1  UNL1        0.0938
     18 C          60.6707   93.3794    1.6492 C.3     1  UNL1        0.0938
     19 C          59.9405   92.7612    0.4940 C.3     1  UNL1        0.0233
     20 C          60.4059   86.8477    9.3724 C.ar    1  UNL1        0.0516
     21 C          60.2328   87.5372   10.6933 C.ar    1  UNL1        0.0147
     22 C          61.1072   87.1653   11.8538 C.ar    1  UNL1        0.0010
     23 C          62.1549   86.1038   11.6936 C.ar    1  UNL1       -0.0014
     24 C          62.3281   85.4142   10.3728 C.ar    1  UNL1        0.0010
     25 C          61.4536   85.7862    9.2122 C.ar    1  UNL1        0.0147
     26 C          63.0294   85.7318   12.8542 C.2     1  UNL1        0.0158
     27 C          63.8071   86.7914   13.5771 C.2     1  UNL1        0.0487
     28 C          64.6815   86.4195   14.7376 C.2     1  UNL1        0.2355
     29 N          64.7783   84.9880   15.1754 N.2     1  UNL1       -0.0325
     30 C          64.0006   83.9285   14.4525 C.2     1  UNL1        0.3799
     31 N          63.8970   82.4458   14.6546 N.2     1  UNL1       -0.0106
     32 C          62.9585   81.9014   13.6189 C.2     1  UNL1        0.3351
     33 N          62.4820   83.0475   12.7767 N.2     1  UNL1       -0.2103
     34 C          63.1262   84.3004   13.2919 C.3     1  UNL1        0.2404
@<TRIPOS>BOND
     1    16    17    1
     2    17    13    1
     3    13    18    1
     4    18    19    1
     5    13    14   am
     6    14    15    2
     7    14     7    1
     8     7     8   ar
     9     8     9   ar
    10     9    10   ar
    11    10    11   ar
    12    11     1    1
    13     1     2   am
    14     2     3    2
    15     2     4   am
    16     4    20    1
    17    20    21   ar
    18    21    22   ar
    19    22    23   ar
    20    23    26    1
    21    26    27    2
    22    27    28    1
    23    28    29    2
    24    29    30    1
    25    30    31    2
    26    31    32    1
    27    32    33    2
    28    33    34    1
    29    23    24   ar
    30    24    25   ar
    31    11    12   ar
    32    12     7   ar
    33    25    20   ar
    34    34    26    1
    35    34    30    1
    36     1     5    1
    37     4     6    1
@<TRIPOS>MOLECULE
*****
 34 37 0 0 0
SMALL
GASTEIGER

@<TRIPOS>ATOM
      1 N          58.6987   89.1806    6.2544 N.am    1  UNL1       -0.2681
      2 C          59.6057   88.6533    7.3263 C.2     1  UNL1        0.3082
      3 O          60.8815   89.3727    7.6501 O.2     1  UNL1       -0.2522
      4 N          59.2371   87.4065    8.0745 N.am    1  UNL1       -0.2681
      5 H          57.8613   88.7084    6.0419 H       1  UNL1        0.1564
      6 H          58.3998   86.9343    7.8620 H       1  UNL1        0.1564
      7 C          60.7574   91.7632    4.0538 C.ar    1  UNL1        0.0548
      8 C          59.8044   92.9208    4.0098 C.ar    1  UNL1        0.0046
      9 C          58.4830   92.8317    4.7140 C.ar    1  UNL1        0.0014
     10 C          58.1144   91.5850    5.4622 C.ar    1  UNL1        0.0147
     11 C          59.0673   90.4274    5.5061 C.ar    1  UNL1        0.0517
     12 C          60.3887   90.5164    4.8020 C.ar    1  UNL1        0.0192
     13 N          62.1855   92.5848    2.0450 N.am    1  UNL1       -0.2761
     14 C          62.0787   91.8523    3.3497 C.2     1  UNL1        0.2491
     15 O          63.2934   91.2089    3.9501 O.2     1  UNL1       -0.2699
     16 C          64.4079   93.8485    1.5826 C.3     1  UNL1        0.0233
     17 C          63.5069   92.6739    1.3408 C.3     1  UNL1        0.0938
     18 C          60.9708   93.2282    1.4446 C.3     1  UNL1        0.0938
     19 C          60.3320   92.6325    0.2251 C.3     1  UNL1        0.0233
     20 C          60.1442   86.8792    9.1464 C.ar    1  UNL1        0.0516
     21 C          61.0905   85.7557    8.8425 C.ar    1  UNL1        0.0147
     22 C          61.9975   85.2284    9.9144 C.ar    1  UNL1        0.0010
     23 C          61.9584   85.8246   11.2903 C.ar    1  UNL1       -0.0014
     24 C          61.0122   86.9481   11.5943 C.ar    1  UNL1        0.0010
     25 C          60.1051   87.4754   10.5222 C.ar    1  UNL1        0.0147
     26 C          62.8655   85.2972   12.3623 C.2     1  UNL1        0.0158
     27 C          63.0734   83.8190   12.5086 C.2     1  UNL1        0.0487
     28 C          63.9805   83.2916   13.5804 C.2     1  UNL1        0.2355
     29 N          64.6798   84.2426   14.5061 N.2     1  UNL1       -0.0325
     30 C          64.4719   85.7208   14.3598 C.2     1  UNL1        0.3799
     31 N          65.0221   86.8917   15.1189 N.2     1  UNL1       -0.0106
     32 C          64.4549   88.1427   14.5162 C.2     1  UNL1        0.3351
     33 N          63.5543   87.7450   13.3845 N.2     1  UNL1       -0.2103
     34 C          63.5648   86.2482   13.2878 C.3     1  UNL1        0.2404
@<TRIPOS>BOND
     1    16    17    1
     2    17    13    1
     3    13    18    1
     4    18    19    1
     5    13    14   am
     6    14    15    2
     7    14     7    1
     8     7     8   ar
     9     8     9   ar
    10     9    10   ar
    11    10    11   ar
    12    11     1    1
    13     1     2   am
    14     2     3    2
    15     2     4   am
    16     4    20    1
    17    20    21   ar
    18    21    22   ar
    19    22    23   ar
    20    23    26    1
    21    26    27    2
    22    27    28    1
    23    28    29    2
    24    29    30    1
    25    30    31    2
    26    31    32    1
    27    32    33    2
    28    33    34    1
    29    23    24   ar
    30    24    25   ar
    31    11    12   ar
    32    12     7   ar
    33    25    20   ar
    34    34    26    1
    35    34    30    1
    36     1     5    1
    37     4     6    1
@<TRIPOS>MOLECULE
*****
 34 37 0 0 0
SMALL
GASTEIGER

@<TRIPOS>ATOM
      1 N          58.5435   91.7023    3.9661 N.am    1  UNL1       -0.2681
      2 C          59.2901   90.9692    5.0408 C.2     1  UNL1        0.3082
      3 O          60.7720   91.1525    5.1831 O.2     1  UNL1       -0.2522
      4 N          58.5548   90.0528    5.9733 N.am    1  UNL1       -0.2681
      5 H          57.5708   91.5820    3.8728 H       1  UNL1        0.1564
      6 H          57.5821   89.9325    5.8800 H       1  UNL1        0.1564
      7 C          59.9817   93.2843    0.6226 C.ar    1  UNL1        0.0548
      8 C          60.7493   94.4517    1.1687 C.ar    1  UNL1        0.0046
      9 C          60.7816   94.7025    2.6472 C.ar    1  UNL1        0.0014
     10 C          60.0463   93.7861    3.5797 C.ar    1  UNL1        0.0147
     11 C          59.2788   92.6188    3.0336 C.ar    1  UNL1        0.0517
     12 C          59.2464   92.3678    1.5551 C.ar    1  UNL1        0.0192
     13 N          58.6742   93.2271   -1.6218 N.am    1  UNL1       -0.2761
     14 C          59.9494   93.0334   -0.8559 C.2     1  UNL1        0.2491
     15 O          61.1921   92.5889   -1.5685 O.2     1  UNL1       -0.2699
     16 C          57.7171   91.9390   -3.6650 C.3     1  UNL1        0.0233
     17 C          58.6419   92.9763   -3.1003 C.3     1  UNL1        0.0938
     18 C          57.4315   93.6717   -0.9092 C.3     1  UNL1        0.0938
     19 C          56.4903   94.6335   -1.5719 C.3     1  UNL1        0.0233
     20 C          59.3014   89.3197    7.0480 C.ar    1  UNL1        0.0516
     21 C          59.3485   87.8204    7.0394 C.ar    1  UNL1        0.0147
     22 C          60.0951   87.0873    8.1141 C.ar    1  UNL1        0.0010
     23 C          60.7947   87.8535    9.1975 C.ar    1  UNL1       -0.0014
     24 C          60.7477   89.3527    9.2061 C.ar    1  UNL1        0.0010
     25 C          60.0010   90.0858    8.1314 C.ar    1  UNL1        0.0147
     26 C          61.5414   87.1203   10.2722 C.2     1  UNL1        0.0158
     27 C          61.5411   85.6205   10.2961 C.2     1  UNL1        0.0487
     28 C          62.2877   84.8874   11.3707 C.2     1  UNL1        0.2355
     29 N          63.0347   85.6540   12.4217 N.2     1  UNL1       -0.0325
     30 C          63.0349   87.1538   12.3978 C.2     1  UNL1        0.3799
     31 N          63.6759   88.1717   13.2939 N.2     1  UNL1       -0.0106
     32 C          63.3254   89.5340   12.7730 C.2     1  UNL1        0.3351
     33 N          62.4678   89.3580   11.5550 N.2     1  UNL1       -0.2103
     34 C          62.2883   87.8870   11.3231 C.3     1  UNL1        0.2404
@<TRIPOS>BOND
     1    16    17    1
     2    17    13    1
     3    13    18    1
     4    18    19    1
     5    13    14   am
     6    14    15    2
     7    14     7    1
     8     7     8   ar
     9     8     9   ar
    10     9    10   ar
    11    10    11   ar
    12    11     1    1
    13     1     2   am
    14     2     3    2
    15     2     4   am
    16     4    20    1
    17    20    21   ar
    18    21    22   ar
    19    22    23   ar
    20    23    26    1
    21    26    27    2
    22    27    28    1
    23    28    29    2
    24    29    30    1
    25    30    31    2
    26    31    32    1
    27    32    33    2
    28    33    34    1
    29    23    24   ar
    30    24    25   ar
    31    11    12   ar
    32    12     7   ar
    33    25    20   ar
    34    34    26    1
    35    34    30    1
    36     1     5    1
    37     4     6    1
