@<TRIPOS>MOLECULE
*****
 41 45 0 0 0
SMALL
GASTEIGER

@<TRIPOS>ATOM
      1 C          64.1072   85.9592   15.3544 C.ar    1  UNL1        0.1383
      2 C          63.5168   85.1457   16.4678 C.ar    1  UNL1        0.0369
      3 C          62.8063   85.8274   17.5995 C.ar    1  UNL1        0.0028
      4 C          62.6863   87.3224   17.6176 C.ar    1  UNL1       -0.0041
      5 C          63.2767   88.1359   16.5042 C.ar    1  UNL1       -0.0186
      6 C          63.9871   87.4542   15.3726 C.ar    1  UNL1        0.0326
      7 O          64.8176   85.2776   14.2227 O.3     1  UNL1       -0.4751
      8 C          64.4797   83.8591   13.8708 C.3     1  UNL1        0.2118
      9 C          63.1989   83.5489   13.1543 C.3     1  UNL1        0.0960
     10 C          64.5943   82.6058   10.3591 C.3     1  UNL1        0.0738
     11 C          63.5794   83.6996   10.5127 C.ar    1  UNL1        0.1387
     12 O          63.0277   84.5520    9.4086 O.2     1  UNL1       -0.4392
     13 C          62.0453   85.5122   10.0111 C.ar    1  UNL1        0.2289
     14 N          61.9899   85.2533   11.4875 N.ar    1  UNL1       -0.2129
     15 C          62.9380   84.1331   11.7976 C.ar    1  UNL1        0.0960
     16 C          61.2568   86.5493    9.2675 C.ar    1  UNL1        0.0536
     17 C          60.3287   86.1370    8.1637 C.ar    1  UNL1        0.0055
     18 C          59.5402   87.1741    7.4202 C.ar    1  UNL1        0.0115
     19 C          59.6799   88.6234    7.7806 C.ar    1  UNL1        0.0577
     20 CL         58.8914   89.6605    7.0370 Cl      1  UNL1       -0.0822
     21 C          60.6080   89.0357    8.8844 C.ar    1  UNL1        0.0115
     22 C          61.3965   87.9986    9.6279 C.ar    1  UNL1        0.0055
     23 C          63.1567   89.6309   16.5224 C.3     1  UNL1        0.0376
     24 C          63.7494   90.4445   15.4104 C.3     1  UNL1        0.1052
     25 C          63.6035   90.4662   13.9177 C.2     1  UNL1        0.2315
     26 O          62.8042   89.6832   12.9187 O.2     1  UNL1       -0.2745
     27 N          64.5878   91.5953   13.8378 N.am    1  UNL1       -0.2546
     28 C          64.7338   91.5736   15.3305 C.3     1  UNL1        0.1249
     29 C          65.1806   92.4089   12.7258 C.ar    1  UNL1        0.0541
     30 C          66.0021   93.6237   13.0409 C.ar    1  UNL1        0.0146
     31 C          66.5949   94.4374   11.9289 C.ar    1  UNL1       -0.0030
     32 C          66.3661   94.0362   10.5017 C.ar    1  UNL1       -0.0227
     33 C          65.5446   92.8214   10.1866 C.ar    1  UNL1       -0.0030
     34 C          64.9518   92.0078   11.2987 C.ar    1  UNL1        0.0146
     35 C          66.9589   94.8498    9.3897 C.3     1  UNL1        0.0189
     36 C          67.9188   93.7375    9.0876 C.3     1  UNL1        0.0044
     37 C          65.9990   95.9621    9.6919 C.3     1  UNL1        0.0044
     38 C          67.5517   95.6635    8.2777 C.3     1  UNL1        0.0044
     39 C          65.5330   92.3567   16.3295 C.2     1  UNL1        0.0692
     40 O          66.9640   92.7016   16.0405 O.co2   1  UNL1       -0.5475
     41 O          64.9014   92.7948   17.6175 O.co2   1  UNL1       -0.5475
@<TRIPOS>UNITY_ATOM_ATTR
40 1
charge -1
@<TRIPOS>BOND
     1    10    11    1
     2    11    12   ar
     3    12    13   ar
     4    13    16    1
     5    16    17   ar
     6    17    18   ar
     7    18    19   ar
     8    19    20    1
     9    19    21   ar
    10    21    22   ar
    11    13    14   ar
    12    14    15   ar
    13    15     9    1
    14     9     8    1
    15     8     7    1
    16     7     1    1
    17     1     2   ar
    18     2     3   ar
    19     3     4   ar
    20     4     5   ar
    21     5    23    1
    22    24    23    1
    23    24    25    1
    24    25    26    2
    25    25    27   am
    26    27    29    1
    27    29    30   ar
    28    30    31   ar
    29    31    32   ar
    30    32    35    1
    31    35    36    1
    32    35    37    1
    33    35    38    1
    34    32    33   ar
    35    33    34   ar
    36    27    28    1
    37    28    39    1
    38    39    40   ar
    39    39    41   ar
    40     5     6   ar
    41    15    11   ar
    42     6     1   ar
    43    22    16   ar
    44    28    24    1
    45    34    29   ar
@<TRIPOS>MOLECULE
*****
 41 45 0 0 0
SMALL
GASTEIGER

@<TRIPOS>ATOM
      1 C          64.2191   86.0148   15.3880 C.ar    1  UNL1        0.1383
      2 C          63.5480   85.2151   16.4651 C.ar    1  UNL1        0.0369
      3 C          62.7576   85.9106   17.5335 C.ar    1  UNL1        0.0028
      4 C          62.6384   87.4059   17.5248 C.ar    1  UNL1       -0.0041
      5 C          63.3095   88.2056   16.4477 C.ar    1  UNL1       -0.0186
      6 C          64.0999   87.5099   15.3794 C.ar    1  UNL1        0.0326
      7 O          65.0095   85.3192   14.3196 O.3     1  UNL1       -0.4751
      8 C          64.6337   83.9314   13.8921 C.3     1  UNL1        0.2118
      9 C          63.2959   83.6767   13.2633 C.3     1  UNL1        0.0960
     10 C          64.6239   82.6341   10.4705 C.3     1  UNL1        0.0738
     11 C          63.6084   83.7293   10.6090 C.ar    1  UNL1        0.1387
     12 O          63.0250   84.5377    9.4883 O.2     1  UNL1       -0.4392
     13 C          62.0541   85.5165   10.0792 C.ar    1  UNL1        0.2289
     14 N          62.0374   85.3131   11.5652 N.ar    1  UNL1       -0.2129
     15 C          62.9980   84.2086   11.8927 C.ar    1  UNL1        0.0960
     16 C          61.2423   86.5222    9.3177 C.ar    1  UNL1        0.0536
     17 C          61.3189   87.9760    9.6787 C.ar    1  UNL1        0.0055
     18 C          60.5072   88.9816    8.9173 C.ar    1  UNL1        0.0115
     19 C          59.6188   88.5333    7.7948 C.ar    1  UNL1        0.0577
     20 CL         58.8071   89.5390    7.0334 Cl      1  UNL1       -0.0822
     21 C          59.5422   87.0794    7.4339 C.ar    1  UNL1        0.0115
     22 C          60.3539   86.0739    8.1953 C.ar    1  UNL1        0.0055
     23 C          63.1903   89.7007   16.4391 C.3     1  UNL1        0.0376
     24 C          63.7990   90.4952   15.3218 C.3     1  UNL1        0.1052
     25 C          64.8129   91.5972   15.2338 C.2     1  UNL1        0.2315
     26 O          65.6379   92.3611   16.2266 O.2     1  UNL1       -0.2745
     27 N          64.6599   91.6188   13.7417 N.am    1  UNL1       -0.2546
     28 C          63.6461   90.5168   13.8298 C.3     1  UNL1        0.1249
     29 C          65.2687   92.4133   12.6245 C.ar    1  UNL1        0.0541
     30 C          66.1332   93.5998   12.9324 C.ar    1  UNL1        0.0146
     31 C          66.7419   94.3942   11.8152 C.ar    1  UNL1       -0.0030
     32 C          66.4861   94.0022   10.3901 C.ar    1  UNL1       -0.0227
     33 C          65.6216   92.8157   10.0822 C.ar    1  UNL1       -0.0030
     34 C          65.0129   92.0213   11.1995 C.ar    1  UNL1        0.0146
     35 C          67.0949   94.7967    9.2728 C.3     1  UNL1        0.0189
     36 C          66.1949   95.9504    9.6029 C.3     1  UNL1        0.0044
     37 C          67.9948   93.6430    8.9427 C.3     1  UNL1        0.0044
     38 C          67.7036   95.5912    8.1556 C.3     1  UNL1        0.0044
     39 C          62.8210   89.7529   12.8370 C.2     1  UNL1        0.0692
     40 O          63.1329   88.3135   12.5522 O.co2   1  UNL1       -0.5475
     41 O          61.6841   90.4282   12.1290 O.co2   1  UNL1       -0.5475
@<TRIPOS>UNITY_ATOM_ATTR
40 1
charge -1
@<TRIPOS>BOND
     1    10    11    1
     2    11    12   ar
     3    12    13   ar
     4    13    16    1
     5    16    17   ar
     6    17    18   ar
     7    18    19   ar
     8    19    20    1
     9    19    21   ar
    10    21    22   ar
    11    13    14   ar
    12    14    15   ar
    13    15     9    1
    14     9     8    1
    15     8     7    1
    16     7     1    1
    17     1     2   ar
    18     2     3   ar
    19     3     4   ar
    20     4     5   ar
    21     5    23    1
    22    24    23    1
    23    24    25    1
    24    25    26    2
    25    25    27   am
    26    27    29    1
    27    29    30   ar
    28    30    31   ar
    29    31    32   ar
    30    32    35    1
    31    35    36    1
    32    35    37    1
    33    35    38    1
    34    32    33   ar
    35    33    34   ar
    36    27    28    1
    37    28    39    1
    38    39    40   ar
    39    39    41   ar
    40     5     6   ar
    41    15    11   ar
    42     6     1   ar
    43    22    16   ar
    44    28    24    1
    45    34    29   ar
@<TRIPOS>MOLECULE
*****
 41 45 0 0 0
SMALL
GASTEIGER

@<TRIPOS>ATOM
      1 C          61.8487   86.4069    8.5412 C.ar    1  UNL1        0.1383
      2 C          60.6515   85.9279    7.7750 C.ar    1  UNL1        0.0369
      3 C          59.3977   86.7512    7.7510 C.ar    1  UNL1        0.0028
      4 C          59.3414   88.0534    8.4933 C.ar    1  UNL1       -0.0041
      5 C          60.5387   88.5325    9.2595 C.ar    1  UNL1       -0.0186
      6 C          61.7923   87.7092    9.2834 C.ar    1  UNL1        0.0326
      7 O          63.1024   85.5837    8.5652 O.3     1  UNL1       -0.4751
      8 C          63.0171   84.0907    8.6827 C.3     1  UNL1        0.2118
      9 C          63.9123   83.3614    9.6401 C.3     1  UNL1        0.0960
     10 C          62.9504   80.7609   11.3611 C.3     1  UNL1        0.0738
     11 C          63.1463   82.1486   11.8957 C.ar    1  UNL1        0.1387
     12 O          62.9345   82.5847   13.3152 O.2     1  UNL1       -0.4392
     13 C          63.2457   84.0496   13.4014 C.ar    1  UNL1        0.2289
     14 N          63.6499   84.5188   12.0352 N.ar    1  UNL1       -0.2129
     15 C          63.5885   83.3440   11.1046 C.ar    1  UNL1        0.0960
     16 C          63.1667   84.8965   14.6370 C.ar    1  UNL1        0.0536
     17 C          62.1724   84.5661   15.7104 C.ar    1  UNL1        0.0055
     18 C          62.0934   85.4130   16.9459 C.ar    1  UNL1        0.0115
     19 C          63.0086   86.5903   17.1079 C.ar    1  UNL1        0.0577
     20 CL         62.9295   87.4372   18.3435 Cl      1  UNL1       -0.0822
     21 C          64.0029   86.9207   16.0346 C.ar    1  UNL1        0.0115
     22 C          64.0819   86.0738   14.7991 C.ar    1  UNL1        0.0055
     23 C          60.4823   89.8347   10.0017 C.3     1  UNL1        0.0376
     24 C          61.6596   90.2867   10.8139 C.3     1  UNL1        0.1052
     25 C          62.9540   90.9811   10.5101 C.2     1  UNL1        0.2315
     26 O          63.6073   91.5112    9.2682 O.2     1  UNL1       -0.2745
     27 N          63.3246   90.9259   11.9626 N.am    1  UNL1       -0.2546
     28 C          62.0302   90.2314   12.2664 C.3     1  UNL1        0.1249
     29 C          64.5019   91.3778   12.7748 C.ar    1  UNL1        0.0541
     30 C          64.9186   90.6008   13.9883 C.ar    1  UNL1        0.0146
     31 C          66.0959   91.0527   14.8005 C.ar    1  UNL1       -0.0030
     32 C          66.8565   92.2817   14.3992 C.ar    1  UNL1       -0.0227
     33 C          66.4399   93.0588   13.1857 C.ar    1  UNL1       -0.0030
     34 C          65.2625   92.6067   12.3735 C.ar    1  UNL1        0.0146
     35 C          68.0338   92.7337   15.2113 C.3     1  UNL1        0.0189
     36 C          68.9457   92.4258   14.0609 C.3     1  UNL1        0.0044
     37 C          67.1219   93.0416   16.3618 C.3     1  UNL1        0.0044
     38 C          69.2111   93.1857   16.0235 C.3     1  UNL1        0.0044
     39 C          61.3770   89.7014   13.5082 C.2     1  UNL1        0.0692
     40 O          59.9525   89.2330   13.4650 O.co2   1  UNL1       -0.5475
     41 O          62.1481   89.6396   14.7934 O.co2   1  UNL1       -0.5475
@<TRIPOS>UNITY_ATOM_ATTR
40 1
charge -1
@<TRIPOS>BOND
     1    10    11    1
     2    11    12   ar
     3    12    13   ar
     4    13    16    1
     5    16    17   ar
     6    17    18   ar
     7    18    19   ar
     8    19    20    1
     9    19    21   ar
    10    21    22   ar
    11    13    14   ar
    12    14    15   ar
    13    15     9    1
    14     9     8    1
    15     8     7    1
    16     7     1    1
    17     1     2   ar
    18     2     3   ar
    19     3     4   ar
    20     4     5   ar
    21     5    23    1
    22    24    23    1
    23    24    25    1
    24    25    26    2
    25    25    27   am
    26    27    29    1
    27    29    30   ar
    28    30    31   ar
    29    31    32   ar
    30    32    35    1
    31    35    36    1
    32    35    37    1
    33    35    38    1
    34    32    33   ar
    35    33    34   ar
    36    27    28    1
    37    28    39    1
    38    39    40   ar
    39    39    41   ar
    40     5     6   ar
    41    15    11   ar
    42     6     1   ar
    43    22    16   ar
    44    28    24    1
    45    34    29   ar
