@<TRIPOS>MOLECULE
*****
 61 68 0 0 0
SMALL
GASTEIGER

@<TRIPOS>ATOM
      1 C          61.4986   92.6622    2.9438 C.3     1  UNL1        0.1715
      2 C          60.1426   93.1934    3.3031 C.3     1  UNL1        0.1450
      3 O          59.6326   94.4469    2.6562 O.3     1  UNL1       -0.3817
      4 C          59.2966   92.4710    4.3092 C.3     1  UNL1        0.0931
      5 C          59.8066   91.2174    4.9562 C.3     1  UNL1        0.2376
      6 O          61.1627   90.6862    4.5969 O.3     1  UNL1       -0.3304
      7 C          62.0087   91.4087    3.5907 C.3     1  UNL1        0.1473
      8 C          63.3647   90.8776    3.2314 C.3     1  UNL1        0.0348
      9 H          58.7475   94.6497    2.9974 H       1  UNL1        0.2104
     10 O          62.3446   93.3846    1.9376 O.3     1  UNL1       -0.3279
     11 C          60.6763   94.3450   -2.1298 C.3     1  UNL1        0.1715
     12 C          61.8912   93.4742   -2.0040 C.3     1  UNL1        0.1450
     13 O          62.5499   92.9236   -3.2340 O.3     1  UNL1       -0.3817
     14 C          62.4473   93.1540   -0.6482 C.3     1  UNL1        0.0931
     15 C          61.7885   93.7047    0.5818 C.3     1  UNL1        0.2377
     16 O          60.5737   94.5755    0.4559 O.3     1  UNL1       -0.3304
     17 C          60.0176   94.8957   -0.8999 C.3     1  UNL1        0.1473
     18 C          58.8028   95.7665   -1.0258 C.3     1  UNL1        0.0348
     19 H          62.0685   93.2241   -4.0206 H       1  UNL1        0.2104
     20 O          60.1202   94.6652   -3.4857 O.3     1  UNL1       -0.3279
     21 C          57.2152   93.2674   -7.5608 C.3     1  UNL1        0.0348
     22 C          57.6035   93.0952   -6.1222 C.3     1  UNL1        0.1469
     23 O          58.6677   93.9663   -5.5232 O.3     1  UNL1       -0.3304
     24 C          59.0560   93.7942   -4.0846 C.3     1  UNL1        0.2377
     25 C          58.3801   92.7510   -3.2450 C.3     1  UNL1        0.0931
     26 C          57.3159   91.8800   -3.8439 C.3     1  UNL1        0.1446
     27 O          56.6399   90.8369   -3.0042 O.3     1  UNL1       -0.3817
     28 C          56.9275   92.0521   -5.2825 C.3     1  UNL1        0.1644
     29 O          55.8633   91.1811   -5.8815 O.3     1  UNL1       -0.3795
     30 H          55.9830   90.3660   -3.5405 H       1  UNL1        0.2104
     31 H          55.5327   90.5656   -5.2086 H       1  UNL1        0.2105
     32 O          58.9607   90.4950    5.9624 O.3     1  UNL1       -0.3330
     33 C          59.6062   89.6148    6.9913 C.3     1  UNL1        0.1178
     34 C          59.5226   88.1229    6.8608 C.3     1  UNL1        0.0296
     35 C          60.1681   87.2428    7.8898 C.3     1  UNL1        0.0025
     36 C          60.8972   87.8546    9.0491 C.3     1  UNL1        0.0003
     37 C          60.8136   86.3626    8.9187 C.3     1  UNL1        0.0000
     38 C          60.9807   89.3465    9.1796 C.3     1  UNL1        0.0024
     39 C          61.7098   89.9584   10.3390 C.3     1  UNL1        0.0002
     40 C          62.3553   89.0783   11.3679 C.3     1  UNL1        0.0023
     41 C          62.2717   87.5862   11.2374 C.3     1  UNL1        0.0248
     42 C          61.5427   86.9744   10.0781 C.3     1  UNL1        0.0047
     43 C          61.4591   85.4824    9.9476 C.3     1  UNL1        0.0294
     44 C          62.1046   84.6022   10.9765 C.3     1  UNL1        0.1128
     45 O          62.0211   83.1103   10.8461 O.3     1  UNL1       -0.3844
     46 C          62.8337   85.2141   12.1359 C.3     1  UNL1        0.0508
     47 C          62.8335   83.7141   12.1382 C.3     1  UNL1        0.0051
     48 C          63.5626   84.6057   13.2972 C.3     1  UNL1        0.0265
     49 C          64.0967   85.7217   14.1453 C.3     1  UNL1        0.0067
     50 C          63.6978   87.0198   13.5082 C.3     1  UNL1        0.0273
     51 C          62.9172   86.7061   12.2663 C.3     1  UNL1        0.0906
     52 O          63.0833   88.1737   12.5282 O.3     1  UNL1       -0.3867
     53 C          60.3352   90.2266    8.1507 C.3     1  UNL1        0.0296
     54 H          61.5192   82.8832   10.0477 H       1  UNL1        0.2103
     55 H          63.5949   88.3010   13.3424 H       1  UNL1        0.2102
     56 C          63.7284   83.1389   13.5635 C.2     1  UNL1        0.0053
     57 C          62.7010   82.2320   14.1733 C.2     1  UNL1        0.0769
     58 C          63.2882   80.8541   14.2535 C.2     1  UNL1        0.3412
     59 O          62.6051   79.6348   14.7983 O.2     1  UNL1       -0.2449
     60 O          64.6785   80.9093   13.6932 O.3     1  UNL1       -0.4408
     61 C          64.9506   82.3215   13.2668 C.3     1  UNL1        0.2314
@<TRIPOS>BOND
     1    22    21    1
     2    22    23    1
     3    23    24    1
     4    24    20    1
     5    11    20    1
     6    11    12    1
     7    12    13    1
     8    12    14    1
     9    14    15    1
    10    15    10    1
    11     1    10    1
    12     1     2    1
    13     2     3    1
    14     2     4    1
    15     4     5    1
    16     5    32    1
    17    33    32    1
    18    33    34    1
    19    34    35    1
    20    35    36    1
    21    36    37    1
    22    36    38    1
    23    38    39    1
    24    39    40    1
    25    41    40    1
    26    41    42    1
    27    42    43    1
    28    43    44    1
    29    44    45    1
    30    44    46    1
    31    46    47    1
    32    46    48    1
    33    48    56    1
    34    56    57    2
    35    57    58    1
    36    58    59    2
    37    58    60    1
    38    60    61    1
    39    48    49    1
    40    49    50    1
    41    50    51    1
    42    51    52    1
    43    38    53    1
    44     5     6    1
    45     6     7    1
    46     7     8    1
    47    15    16    1
    48    16    17    1
    49    17    18    1
    50    24    25    1
    51    25    26    1
    52    26    27    1
    53    26    28    1
    54    28    29    1
    55    28    22    1
    56    17    11    1
    57     7     1    1
    58    53    33    1
    59    42    36    1
    60    51    46    1
    61    51    41    1
    62    61    56    1
    63    13    19    1
    64     3     9    1
    65    45    54    1
    66    52    55    1
    67    27    30    1
    68    29    31    1
@<TRIPOS>MOLECULE
*****
 61 68 0 0 0
SMALL
GASTEIGER

@<TRIPOS>ATOM
      1 C          61.2596   88.5045   10.2775 C.3     1  UNL1        0.1715
      2 C          60.4512   89.7496   10.4926 C.3     1  UNL1        0.1450
      3 O          60.5451   90.4892   11.7942 O.3     1  UNL1       -0.3817
      4 C          59.5490   90.2551    9.4062 C.3     1  UNL1        0.0931
      5 C          59.4551   89.5156    8.1045 C.3     1  UNL1        0.2376
      6 O          60.2635   88.2705    7.8894 O.3     1  UNL1       -0.3304
      7 C          61.1657   87.7649    8.9759 C.3     1  UNL1        0.1473
      8 C          61.9741   86.5198    8.7608 C.3     1  UNL1        0.0348
      9 H          59.9632   91.2648   11.7681 H       1  UNL1        0.2104
     10 O          62.1618   87.9990   11.3639 O.3     1  UNL1       -0.3279
     11 C          64.0966   90.8965   14.2119 C.3     1  UNL1        0.1715
     12 C          64.1185   91.1671   12.7366 C.3     1  UNL1        0.1450
     13 O          64.7853   92.4035   12.2108 O.3     1  UNL1       -0.3817
     14 C          63.4736   90.2013   11.7873 C.3     1  UNL1        0.0931
     15 C          62.8067   88.9648   12.3133 C.3     1  UNL1        0.2377
     16 O          62.7849   88.6942   13.7885 O.3     1  UNL1       -0.3304
     17 C          63.4298   89.6600   14.7378 C.3     1  UNL1        0.1473
     18 C          63.4080   89.3894   16.2130 C.3     1  UNL1        0.0348
     19 H          65.1483   92.9148   12.9509 H       1  UNL1        0.2104
     20 O          64.7416   91.8623   15.1612 O.3     1  UNL1       -0.3279
     21 C          69.2404   91.3675   12.6088 C.3     1  UNL1        0.0348
     22 C          68.4410   91.9656   13.7282 C.3     1  UNL1        0.1469
     23 O          66.9910   91.6149   13.8850 O.3     1  UNL1       -0.3304
     24 C          66.1915   92.2130   15.0044 C.3     1  UNL1        0.2377
     25 C          66.8420   93.1619   15.9670 C.3     1  UNL1        0.0931
     26 C          68.2919   93.5126   15.8102 C.3     1  UNL1        0.1446
     27 O          68.9424   94.4615   16.7727 O.3     1  UNL1       -0.3817
     28 C          69.0915   92.9145   14.6907 C.3     1  UNL1        0.1644
     29 O          70.5414   93.2652   14.5339 O.3     1  UNL1       -0.3795
     30 H          69.8744   94.5789   16.5310 H       1  UNL1        0.2104
     31 H          70.8015   93.8853   15.2330 H       1  UNL1        0.2105
     32 O          58.5529   90.0211    7.0181 O.3     1  UNL1       -0.3330
     33 C          59.1388   90.6507    5.7890 C.3     1  UNL1        0.1178
     34 C          58.2437   91.3274    4.7937 C.3     1  UNL1        0.0296
     35 C          58.8295   91.9570    3.5647 C.3     1  UNL1        0.0025
     36 C          60.3105   91.9098    3.3311 C.3     1  UNL1        0.0003
     37 C          59.4154   92.5866    2.3356 C.3     1  UNL1        0.0000
     38 C          61.2056   91.2331    4.3264 C.3     1  UNL1        0.0024
     39 C          62.6865   91.1859    4.0928 C.3     1  UNL1        0.0002
     40 C          63.2724   91.8154    2.8639 C.3     1  UNL1        0.0023
     41 C          62.3773   92.4922    1.8684 C.3     1  UNL1        0.0248
     42 C          60.8963   92.5394    2.1020 C.3     1  UNL1        0.0047
     43 C          60.0012   93.2161    1.1067 C.3     1  UNL1        0.0294
     44 C          60.5871   93.8457   -0.1224 C.3     1  UNL1        0.1128
     45 O          59.6920   94.5224   -1.1177 O.3     1  UNL1       -0.3844
     46 C          62.0680   93.7985   -0.3560 C.3     1  UNL1        0.0508
     47 C          61.3025   94.5067   -1.4342 C.3     1  UNL1        0.0051
     48 C          62.9263   94.3274   -1.4667 C.3     1  UNL1        0.0265
     49 C          64.3518   93.9775   -1.1577 C.3     1  UNL1        0.0067
     50 C          64.3745   93.2324    0.1439 C.3     1  UNL1        0.0273
     51 C          62.9631   93.1217    0.6395 C.3     1  UNL1        0.0906
     52 O          63.9781   92.4838    1.5411 O.3     1  UNL1       -0.3867
     53 C          60.6197   90.6035    5.5554 C.3     1  UNL1        0.0296
     54 H          58.7715   94.4633   -0.8174 H       1  UNL1        0.2103
     55 H          64.8633   92.5934    1.1600 H       1  UNL1        0.2102
     56 C          62.4437   95.0749   -2.6743 C.2     1  UNL1        0.0053
     57 C          62.2158   94.4936   -4.0381 C.2     1  UNL1        0.0769
     58 C          61.7356   95.5944   -4.9368 C.2     1  UNL1        0.3412
     59 O          61.3857   95.4576   -6.3891 O.2     1  UNL1       -0.2449
     60 O          61.6666   96.8560   -4.1284 O.3     1  UNL1       -0.4408
     61 C          62.1042   96.5349   -2.7300 C.3     1  UNL1        0.2314
@<TRIPOS>BOND
     1    22    21    1
     2    22    23    1
     3    23    24    1
     4    24    20    1
     5    11    20    1
     6    11    12    1
     7    12    13    1
     8    12    14    1
     9    14    15    1
    10    15    10    1
    11     1    10    1
    12     1     2    1
    13     2     3    1
    14     2     4    1
    15     4     5    1
    16     5    32    1
    17    33    32    1
    18    33    34    1
    19    34    35    1
    20    35    36    1
    21    36    37    1
    22    36    38    1
    23    38    39    1
    24    39    40    1
    25    41    40    1
    26    41    42    1
    27    42    43    1
    28    43    44    1
    29    44    45    1
    30    44    46    1
    31    46    47    1
    32    46    48    1
    33    48    56    1
    34    56    57    2
    35    57    58    1
    36    58    59    2
    37    58    60    1
    38    60    61    1
    39    48    49    1
    40    49    50    1
    41    50    51    1
    42    51    52    1
    43    38    53    1
    44     5     6    1
    45     6     7    1
    46     7     8    1
    47    15    16    1
    48    16    17    1
    49    17    18    1
    50    24    25    1
    51    25    26    1
    52    26    27    1
    53    26    28    1
    54    28    29    1
    55    28    22    1
    56    17    11    1
    57     7     1    1
    58    53    33    1
    59    42    36    1
    60    51    46    1
    61    51    41    1
    62    61    56    1
    63    13    19    1
    64     3     9    1
    65    45    54    1
    66    52    55    1
    67    27    30    1
    68    29    31    1
@<TRIPOS>MOLECULE
*****
 61 68 0 0 0
SMALL
GASTEIGER

@<TRIPOS>ATOM
      1 C          61.5056   93.1692    2.8616 C.3     1  UNL1        0.1715
      2 C          60.1477   93.6392    3.2920 C.3     1  UNL1        0.1450
      3 O          59.6411   94.9784    2.8450 O.3     1  UNL1       -0.3817
      4 C          59.2965   92.7701    4.1695 C.3     1  UNL1        0.0931
      5 C          59.8031   91.4308    4.6166 C.3     1  UNL1        0.2376
      6 O          61.1610   90.9608    4.1862 O.3     1  UNL1       -0.3304
      7 C          62.0122   91.8300    3.3087 C.3     1  UNL1        0.1473
      8 C          63.3701   91.3600    2.8783 C.3     1  UNL1        0.0348
      9 H          58.7543   95.1265    3.2090 H       1  UNL1        0.2104
     10 O          62.3569   94.0383    1.9842 O.3     1  UNL1       -0.3279
     11 C          62.0239   93.7279   -2.4927 C.3     1  UNL1        0.1715
     12 C          63.3255   93.4188   -1.8142 C.3     1  UNL1        0.1450
     13 O          64.5161   93.0062   -2.6280 O.3     1  UNL1       -0.3817
     14 C          63.4365   93.5222   -0.3219 C.3     1  UNL1        0.0931
     15 C          62.2459   93.9348    0.4919 C.3     1  UNL1        0.2377
     16 O          60.9443   94.2439   -0.1866 O.3     1  UNL1       -0.3304
     17 C          60.8333   94.1405   -1.6789 C.3     1  UNL1        0.1473
     18 C          59.5318   94.4496   -2.3574 C.3     1  UNL1        0.0348
     19 H          64.2755   92.9897   -3.5676 H       1  UNL1        0.2104
     20 O          61.9129   93.6245   -3.9850 O.3     1  UNL1       -0.3279
     21 C          65.7637   96.6037   -5.8002 C.3     1  UNL1        0.0348
     22 C          65.0586   95.2808   -5.7488 C.3     1  UNL1        0.1469
     23 O          63.8382   95.1141   -4.8926 O.3     1  UNL1       -0.3304
     24 C          63.1332   93.7911   -4.8412 C.3     1  UNL1        0.2377
     25 C          63.6484   92.6349   -5.6460 C.3     1  UNL1        0.0931
     26 C          64.8686   92.8016   -6.5022 C.3     1  UNL1        0.1446
     27 O          65.3838   91.6454   -7.3069 O.3     1  UNL1       -0.3817
     28 C          65.5738   94.1246   -6.5536 C.3     1  UNL1        0.1644
     29 O          66.7941   94.2913   -7.4098 O.3     1  UNL1       -0.3795
     30 H          66.1726   91.9205   -7.7999 H       1  UNL1        0.2104
     31 H          66.9902   93.4545   -7.8595 H       1  UNL1        0.2105
     32 O          58.9518   90.5617    5.4940 O.3     1  UNL1       -0.3330
     33 C          59.5749   89.8001    6.6262 C.3     1  UNL1        0.1178
     34 C          59.3700   88.3182    6.7357 C.3     1  UNL1        0.0296
     35 C          59.9930   87.5566    7.8679 C.3     1  UNL1        0.0025
     36 C          60.8209   88.2769    8.8905 C.3     1  UNL1        0.0003
     37 C          60.6161   86.7950    9.0001 C.3     1  UNL1        0.0000
     38 C          61.0258   89.7588    8.7810 C.3     1  UNL1        0.0024
     39 C          61.8537   90.4791    9.8036 C.3     1  UNL1        0.0002
     40 C          62.4767   89.7175   10.9357 C.3     1  UNL1        0.0023
     41 C          62.2718   88.2356   11.0453 C.3     1  UNL1        0.0248
     42 C          61.4440   87.5153   10.0227 C.3     1  UNL1        0.0047
     43 C          61.2391   86.0334   10.1322 C.3     1  UNL1        0.0294
     44 C          61.8621   85.2717   11.2644 C.3     1  UNL1        0.1128
     45 O          61.6573   83.7899   11.3739 O.3     1  UNL1       -0.3844
     46 C          62.6900   85.9920   12.2870 C.3     1  UNL1        0.0508
     47 C          62.5739   84.5158   12.5260 C.3     1  UNL1        0.0051
     48 C          63.4234   85.5115   13.5041 C.3     1  UNL1        0.0265
     49 C          64.0815   86.6963   14.1467 C.3     1  UNL1        0.0067
     50 C          63.7548   87.9092   13.3268 C.3     1  UNL1        0.0273
     51 C          62.8949   87.4740   12.1775 C.3     1  UNL1        0.0906
     52 O          63.1862   88.9453   12.1986 O.3     1  UNL1       -0.3867
     53 C          60.4027   90.5204    7.6488 C.3     1  UNL1        0.0296
     54 H          61.1024   83.4850   10.6390 H       1  UNL1        0.2103
     55 H          63.7438   89.1535   12.9645 H       1  UNL1        0.2102
     56 C          63.4874   84.0947   13.9926 C.2     1  UNL1        0.0053
     57 C          64.4332   83.0365   13.5070 C.2     1  UNL1        0.0769
     58 C          64.1472   81.7753   14.2668 C.2     1  UNL1        0.3412
     59 O          64.8588   80.4652   14.1006 O.2     1  UNL1       -0.2449
     60 O          63.0248   82.0539   15.2220 O.3     1  UNL1       -0.4408
     61 C          62.6170   83.4874   15.0526 C.3     1  UNL1        0.2314
@<TRIPOS>BOND
     1    22    21    1
     2    22    23    1
     3    23    24    1
     4    24    20    1
     5    11    20    1
     6    11    12    1
     7    12    13    1
     8    12    14    1
     9    14    15    1
    10    15    10    1
    11     1    10    1
    12     1     2    1
    13     2     3    1
    14     2     4    1
    15     4     5    1
    16     5    32    1
    17    33    32    1
    18    33    34    1
    19    34    35    1
    20    35    36    1
    21    36    37    1
    22    36    38    1
    23    38    39    1
    24    39    40    1
    25    41    40    1
    26    41    42    1
    27    42    43    1
    28    43    44    1
    29    44    45    1
    30    44    46    1
    31    46    47    1
    32    46    48    1
    33    48    56    1
    34    56    57    2
    35    57    58    1
    36    58    59    2
    37    58    60    1
    38    60    61    1
    39    48    49    1
    40    49    50    1
    41    50    51    1
    42    51    52    1
    43    38    53    1
    44     5     6    1
    45     6     7    1
    46     7     8    1
    47    15    16    1
    48    16    17    1
    49    17    18    1
    50    24    25    1
    51    25    26    1
    52    26    27    1
    53    26    28    1
    54    28    29    1
    55    28    22    1
    56    17    11    1
    57     7     1    1
    58    53    33    1
    59    42    36    1
    60    51    46    1
    61    51    41    1
    62    61    56    1
    63    13    19    1
    64     3     9    1
    65    45    54    1
    66    52    55    1
    67    27    30    1
    68    29    31    1
@<TRIPOS>MOLECULE
*****
 61 68 0 0 0
SMALL
GASTEIGER

@<TRIPOS>ATOM
      1 C          59.3041   90.4205    5.3191 C.3     1  UNL1        0.1715
      2 C          60.6279   90.9575    4.8616 C.3     1  UNL1        0.1450
      3 O          61.8814   90.1710    5.1064 O.3     1  UNL1       -0.3817
      4 C          60.6981   92.2811    4.1594 C.3     1  UNL1        0.0931
      5 C          59.4446   93.0678    3.9146 C.3     1  UNL1        0.2376
      6 O          58.1208   92.5308    4.3721 O.3     1  UNL1       -0.3304
      7 C          58.0506   91.2071    5.0743 C.3     1  UNL1        0.1473
      8 C          56.7268   90.6701    5.5318 C.3     1  UNL1        0.0348
      9 H          62.6423   90.6563    4.7509 H       1  UNL1        0.2104
     10 O          59.2339   89.0970    6.0213 O.3     1  UNL1       -0.3279
     11 C          60.8021   88.6912   10.2196 C.3     1  UNL1        0.1715
     12 C          60.0111   89.9042    9.8285 C.3     1  UNL1        0.1450
     13 O          59.7428   90.9819   10.8367 O.3     1  UNL1       -0.3817
     14 C          59.4883   90.0395    8.4290 C.3     1  UNL1        0.0931
     15 C          59.7566   88.9617    7.4208 C.3     1  UNL1        0.2377
     16 O          60.5476   87.7488    7.8120 O.3     1  UNL1       -0.3304
     17 C          61.0703   87.6135    9.2114 C.3     1  UNL1        0.1473
     18 C          61.8612   86.4006    9.6026 C.3     1  UNL1        0.0348
     19 H          60.1475   90.7396   11.6843 H       1  UNL1        0.2104
     20 O          61.3248   88.5559   11.6191 O.3     1  UNL1       -0.3279
     21 C          63.9091   90.6820   15.5941 C.3     1  UNL1        0.0348
     22 C          63.6415   90.5862   14.1213 C.3     1  UNL1        0.1469
     23 O          62.6169   89.6189   13.6066 O.3     1  UNL1       -0.3304
     24 C          62.3493   89.5231   12.1338 C.3     1  UNL1        0.2377
     25 C          63.1061   90.3945   11.1757 C.3     1  UNL1        0.0931
     26 C          64.1306   91.3617   11.6904 C.3     1  UNL1        0.1446
     27 O          64.8874   92.2331   10.7323 O.3     1  UNL1       -0.3817
     28 C          64.3983   91.4575   13.1633 C.3     1  UNL1        0.1644
     29 O          65.4227   92.4247   13.6779 O.3     1  UNL1       -0.3795
     30 H          65.5053   92.7951   11.2254 H       1  UNL1        0.2104
     31 H          65.8157   92.9062   12.9332 H       1  UNL1        0.2105
     32 O          59.5148   94.3914    3.2124 O.3     1  UNL1       -0.3330
     33 C          60.2216   94.5044    1.8942 C.3     1  UNL1        0.1178
     34 C          61.6403   94.9889    1.8429 C.3     1  UNL1        0.0296
     35 C          62.3470   95.1020    0.5247 C.3     1  UNL1        0.0025
     36 C          61.6350   94.7306   -0.7423 C.3     1  UNL1        0.0003
     37 C          63.0537   95.2151   -0.7936 C.3     1  UNL1        0.0000
     38 C          60.2164   94.2461   -0.6910 C.3     1  UNL1        0.0024
     39 C          59.5045   93.8747   -1.9580 C.3     1  UNL1        0.0002
     40 C          60.2112   93.9877   -3.2762 C.3     1  UNL1        0.0023
     41 C          61.6299   94.4722   -3.3275 C.3     1  UNL1        0.0248
     42 C          62.3418   94.8437   -2.0605 C.3     1  UNL1        0.0047
     43 C          63.7605   95.3281   -2.1118 C.3     1  UNL1        0.0294
     44 C          64.4672   95.4412   -3.4300 C.3     1  UNL1        0.1128
     45 O          65.8859   95.9257   -3.4813 O.3     1  UNL1       -0.3844
     46 C          63.7553   95.0698   -4.6970 C.3     1  UNL1        0.0508
     47 C          65.1659   95.5361   -4.9040 C.3     1  UNL1        0.0051
     48 C          64.1908   95.0777   -6.1324 C.3     1  UNL1        0.0265
     49 C          63.0414   94.5980   -6.9682 C.3     1  UNL1        0.0067
     50 C          61.8954   94.2937   -6.0494 C.3     1  UNL1        0.0273
     51 C          62.3366   94.5853   -4.6457 C.3     1  UNL1        0.0906
     52 O          60.9254   94.0879   -4.7508 O.3     1  UNL1       -0.3867
     53 C          59.5097   94.1330    0.6272 C.3     1  UNL1        0.0296
     54 H          66.1935   96.1211   -2.5823 H       1  UNL1        0.2103
     55 H          60.7098   93.9211   -5.6817 H       1  UNL1        0.2102
     56 C          65.5391   95.4924   -6.6423 C.2     1  UNL1        0.0053
     57 C          66.7542   94.6176   -6.7343 C.2     1  UNL1        0.0769
     58 C          67.8751   95.4392   -7.2986 C.2     1  UNL1        0.3412
     59 O          69.2730   94.9621   -7.5603 O.2     1  UNL1       -0.2449
     60 O          67.3529   96.8217   -7.5554 O.3     1  UNL1       -0.4408
     61 C          65.9091   96.8545   -7.1498 C.3     1  UNL1        0.2314
@<TRIPOS>BOND
     1    22    21    1
     2    22    23    1
     3    23    24    1
     4    24    20    1
     5    11    20    1
     6    11    12    1
     7    12    13    1
     8    12    14    1
     9    14    15    1
    10    15    10    1
    11     1    10    1
    12     1     2    1
    13     2     3    1
    14     2     4    1
    15     4     5    1
    16     5    32    1
    17    33    32    1
    18    33    34    1
    19    34    35    1
    20    35    36    1
    21    36    37    1
    22    36    38    1
    23    38    39    1
    24    39    40    1
    25    41    40    1
    26    41    42    1
    27    42    43    1
    28    43    44    1
    29    44    45    1
    30    44    46    1
    31    46    47    1
    32    46    48    1
    33    48    56    1
    34    56    57    2
    35    57    58    1
    36    58    59    2
    37    58    60    1
    38    60    61    1
    39    48    49    1
    40    49    50    1
    41    50    51    1
    42    51    52    1
    43    38    53    1
    44     5     6    1
    45     6     7    1
    46     7     8    1
    47    15    16    1
    48    16    17    1
    49    17    18    1
    50    24    25    1
    51    25    26    1
    52    26    27    1
    53    26    28    1
    54    28    29    1
    55    28    22    1
    56    17    11    1
    57     7     1    1
    58    53    33    1
    59    42    36    1
    60    51    46    1
    61    51    41    1
    62    61    56    1
    63    13    19    1
    64     3     9    1
    65    45    54    1
    66    52    55    1
    67    27    30    1
    68    29    31    1
