@<TRIPOS>MOLECULE
*****
 29 31 0 0 0
SMALL
GASTEIGER

@<TRIPOS>ATOM
      1 C          66.2510   91.6260   14.1217 C.ar    1  UNL1        0.1724
      2 C          65.2745   90.5598   14.5212 C.ar    1  UNL1        0.0402
      3 C          64.1314   90.2119   13.6144 C.ar    1  UNL1        0.0078
      4 C          63.9647   90.9302   12.3082 C.ar    1  UNL1        0.0566
      5 C          64.9412   91.9964   11.9087 C.ar    1  UNL1        0.0445
      6 C          66.0843   92.3443   12.8155 C.ar    1  UNL1        0.1722
      7 C          62.8216   90.5822   11.4015 C.2     1  UNL1        0.2463
      8 O          62.7907   91.1092    9.9974 O.2     1  UNL1       -0.2701
      9 N          61.7093   89.7073   11.8987 N.am    1  UNL1       -0.2943
     10 H          61.7295   89.3615   12.8202 H       1  UNL1        0.1501
     11 C          60.5662   89.3594   10.9920 C.3     1  UNL1        0.1579
     12 C          60.6772   88.1888   10.0605 C.ar    1  UNL1        0.1738
     13 C          61.8980   87.3434    9.8486 C.ar    1  UNL1        0.0553
     14 C          61.5622   86.2902    8.8346 C.ar    1  UNL1        0.1000
     15 N          60.1338   86.4849    8.4198 N.ar    1  UNL1       -0.0817
     16 O          59.5869   87.6582    9.1775 O.2     1  UNL1       -0.3563
     17 C          62.4916   85.2289    8.3249 C.3     1  UNL1        0.0436
     18 C          63.4301   84.5374    9.2689 C.3     1  UNL1        0.0064
     19 C          62.4824   84.8591    6.8713 C.3     1  UNL1        0.0064
     20 C          67.1906   92.9459   16.1527 C.3     1  UNL1        0.2526
     21 O          67.3941   91.9740   15.0284 O.3     1  UNL1       -0.4684
     22 O          67.0608   93.4106   12.4160 O.3     1  UNL1       -0.4760
     23 C          66.7853   94.2688   11.2170 C.3     1  UNL1        0.1688
     24 C          65.9978   95.5367   11.3672 C.3     1  UNL1        0.0609
     25 C          65.7222   96.3949   10.1682 C.3     1  UNL1        0.0758
     26 N          66.2341   95.9853    8.8191 N.3     1  UNL1       -0.2713
     27 C          65.9586   96.8435    7.6201 C.3     1  UNL1        0.0896
     28 C          67.0215   94.7175    8.6689 C.3     1  UNL1        0.0758
     29 C          67.2971   93.8592    9.8679 C.3     1  UNL1        0.0609
@<TRIPOS>BOND
     1    20    21    1
     2    21     1    1
     3     1     2   ar
     4     2     3   ar
     5     3     4   ar
     6     4     7    1
     7     7     8    2
     8     7     9   am
     9     9    11    1
    10    11    12    1
    11    12    13   ar
    12    13    14   ar
    13    14    17    1
    14    17    18    1
    15    17    19    1
    16    14    15   ar
    17    15    16   ar
    18     4     5   ar
    19     5     6   ar
    20     6    22    1
    21    22    23    1
    22    23    24    1
    23    24    25    1
    24    25    26    1
    25    26    27    1
    26    26    28    1
    27    28    29    1
    28     6     1   ar
    29    29    23    1
    30    16    12   ar
    31     9    10    1
@<TRIPOS>MOLECULE
*****
 29 31 0 0 0
SMALL
GASTEIGER

@<TRIPOS>ATOM
      1 C          64.7388   91.8325   12.4214 C.ar    1  UNL1        0.1724
      2 C          65.5807   91.6094   13.6426 C.ar    1  UNL1        0.0402
      3 C          65.3117   90.4336   14.5344 C.ar    1  UNL1        0.0078
      4 C          64.2008   89.4811   14.2051 C.ar    1  UNL1        0.0566
      5 C          63.3589   89.7043   12.9839 C.ar    1  UNL1        0.0445
      6 C          63.6279   90.8800   12.0921 C.ar    1  UNL1        0.1722
      7 C          63.9318   88.3054   15.0969 C.2     1  UNL1        0.2463
      8 O          63.2523   88.5068   16.4188 O.2     1  UNL1       -0.2701
      9 N          64.3424   86.9283   14.6667 N.am    1  UNL1       -0.2943
     10 H          64.7884   86.7961   13.7991 H       1  UNL1        0.1501
     11 C          64.0734   85.7526   15.5586 C.3     1  UNL1        0.1579
     12 C          63.6914   84.4305   14.9618 C.ar    1  UNL1        0.1738
     13 C          63.8784   84.0221   13.5305 C.ar    1  UNL1        0.0553
     14 C          63.3580   82.6239   13.3756 C.ar    1  UNL1        0.1000
     15 N          62.8493   82.1680   14.7111 N.ar    1  UNL1       -0.0817
     16 O          63.0554   83.2845   15.6914 O.2     1  UNL1       -0.3563
     17 C          63.3479   81.8223   12.1078 C.3     1  UNL1        0.0436
     18 C          62.7581   80.4431   12.0972 C.3     1  UNL1        0.0064
     19 C          63.9277   82.3998   10.8507 C.3     1  UNL1        0.0064
     20 C          66.1157   93.9634   11.8615 C.3     1  UNL1        0.2526
     21 O          65.0078   93.0083   11.5296 O.3     1  UNL1       -0.4684
     22 O          62.7860   91.1032   10.8708 O.3     1  UNL1       -0.4760
     23 C          62.0443   89.9560   10.2513 C.3     1  UNL1        0.1688
     24 C          60.6432   90.1506    9.7522 C.3     1  UNL1        0.0609
     25 C          59.9016   89.0034    9.1327 C.3     1  UNL1        0.0758
     26 N          60.5610   87.6615    9.0121 N.3     1  UNL1       -0.2713
     27 C          59.8194   86.5143    8.3926 C.3     1  UNL1        0.0896
     28 C          61.9621   87.4669    9.5112 C.3     1  UNL1        0.0758
     29 C          62.7038   88.6141   10.1307 C.3     1  UNL1        0.0609
@<TRIPOS>BOND
     1    20    21    1
     2    21     1    1
     3     1     2   ar
     4     2     3   ar
     5     3     4   ar
     6     4     7    1
     7     7     8    2
     8     7     9   am
     9     9    11    1
    10    11    12    1
    11    12    13   ar
    12    13    14   ar
    13    14    17    1
    14    17    18    1
    15    17    19    1
    16    14    15   ar
    17    15    16   ar
    18     4     5   ar
    19     5     6   ar
    20     6    22    1
    21    22    23    1
    22    23    24    1
    23    24    25    1
    24    25    26    1
    25    26    27    1
    26    26    28    1
    27    28    29    1
    28     6     1   ar
    29    29    23    1
    30    16    12   ar
    31     9    10    1
@<TRIPOS>MOLECULE
*****
 29 31 0 0 0
SMALL
GASTEIGER

@<TRIPOS>ATOM
      1 C          60.7885   86.4047    8.0768 C.ar    1  UNL1        0.1724
      2 C          59.8722   87.5917    8.1116 C.ar    1  UNL1        0.0402
      3 C          60.1979   88.7653    8.9871 C.ar    1  UNL1        0.0078
      4 C          61.4400   88.7519    9.8279 C.ar    1  UNL1        0.0566
      5 C          62.3564   87.5649    9.7931 C.ar    1  UNL1        0.0445
      6 C          62.0306   86.3913    8.9176 C.ar    1  UNL1        0.1722
      7 C          61.7658   89.9255   10.7035 C.2     1  UNL1        0.2463
      8 O          60.7207   90.9638   10.9855 O.2     1  UNL1       -0.2701
      9 N          63.1367   90.0608   11.2970 N.am    1  UNL1       -0.2943
     10 H          63.8227   89.3793   11.1119 H       1  UNL1        0.1501
     11 C          63.4625   91.2343   12.1725 C.3     1  UNL1        0.1579
     12 C          64.6992   92.0428   11.9137 C.ar    1  UNL1        0.1738
     13 C          65.4024   92.1810   10.5959 C.ar    1  UNL1        0.0553
     14 C          66.5876   93.0785   10.7948 C.ar    1  UNL1        0.1000
     15 N          66.6170   93.4950   12.2356 N.ar    1  UNL1       -0.0817
     16 O          65.4499   92.8549   12.9270 O.2     1  UNL1       -0.3563
     17 C          67.5709   93.4878    9.7386 C.3     1  UNL1        0.0436
     18 C          68.5445   92.4862    9.1917 C.3     1  UNL1        0.0064
     19 C          67.5805   94.8986    9.2291 C.3     1  UNL1        0.0064
     20 C          61.5051   84.6708    6.2796 C.3     1  UNL1        0.2526
     21 O          60.4628   85.2311    7.2013 O.3     1  UNL1       -0.4684
     22 O          62.9470   85.2042    8.8829 O.3     1  UNL1       -0.4760
     23 C          63.1482   84.3757   10.1169 C.3     1  UNL1        0.1688
     24 C          64.0499   83.1776   10.0772 C.3     1  UNL1        0.0609
     25 C          64.2511   82.3490   11.3113 C.3     1  UNL1        0.0758
     26 N          63.5506   82.7185   12.5851 N.3     1  UNL1       -0.2713
     27 C          63.7518   81.8900   13.8192 C.3     1  UNL1        0.0896
     28 C          62.6489   83.9165   12.6249 C.3     1  UNL1        0.0758
     29 C          62.4477   84.7452   11.3908 C.3     1  UNL1        0.0609
@<TRIPOS>BOND
     1    20    21    1
     2    21     1    1
     3     1     2   ar
     4     2     3   ar
     5     3     4   ar
     6     4     7    1
     7     7     8    2
     8     7     9   am
     9     9    11    1
    10    11    12    1
    11    12    13   ar
    12    13    14   ar
    13    14    17    1
    14    17    18    1
    15    17    19    1
    16    14    15   ar
    17    15    16   ar
    18     4     5   ar
    19     5     6   ar
    20     6    22    1
    21    22    23    1
    22    23    24    1
    23    24    25    1
    24    25    26    1
    25    26    27    1
    26    26    28    1
    27    28    29    1
    28     6     1   ar
    29    29    23    1
    30    16    12   ar
    31     9    10    1
@<TRIPOS>MOLECULE
*****
 29 31 0 0 0
SMALL
GASTEIGER

@<TRIPOS>ATOM
      1 C          62.2034   87.1474   11.1923 C.ar    1  UNL1        0.1724
      2 C          61.9221   86.2280   10.0411 C.ar    1  UNL1        0.0402
      3 C          61.0351   86.6803    8.9192 C.ar    1  UNL1        0.0078
      4 C          60.4293   88.0522    8.9486 C.ar    1  UNL1        0.0566
      5 C          60.7105   88.9717   10.0999 C.ar    1  UNL1        0.0445
      6 C          61.5975   88.5193   11.2217 C.ar    1  UNL1        0.1722
      7 C          59.5422   88.5046    7.8268 C.2     1  UNL1        0.2463
      8 O          58.3644   87.6701    7.4188 O.2     1  UNL1       -0.2701
      9 N          59.8330   89.7914    7.1130 N.am    1  UNL1       -0.2943
     10 H          60.6060   90.3390    7.3808 H       1  UNL1        0.1501
     11 C          58.9459   90.2437    5.9912 C.3     1  UNL1        0.1579
     12 C          59.4617   91.2171    4.9730 C.ar    1  UNL1        0.1738
     13 C          60.8145   91.1821    4.3259 C.ar    1  UNL1        0.0553
     14 C          60.9042   92.3396    3.3762 C.ar    1  UNL1        0.1000
     15 N          59.6068   93.0901    3.4363 N.ar    1  UNL1       -0.0817
     16 O          58.7153   92.3963    4.4232 O.2     1  UNL1       -0.3563
     17 C          62.0841   92.6859    2.5172 C.3     1  UNL1        0.0436
     18 C          63.3441   91.8776    2.6123 C.3     1  UNL1        0.0064
     19 C          62.0040   93.8406    1.5630 C.3     1  UNL1        0.0064
     20 C          63.0954   85.2545   12.7321 C.3     1  UNL1        0.2526
     21 O          63.0904   86.6951   12.3141 O.3     1  UNL1       -0.4684
     22 O          61.8787   89.4389   12.3730 O.3     1  UNL1       -0.4760
     23 C          63.0498   90.3745   12.3169 C.3     1  UNL1        0.1688
     24 C          63.8793   90.6123   13.5439 C.3     1  UNL1        0.0609
     25 C          65.0504   91.5478   13.4878 C.3     1  UNL1        0.0758
     26 N          65.3920   92.2457   12.2047 N.3     1  UNL1       -0.2713
     27 C          66.5631   93.1813   12.1485 C.3     1  UNL1        0.0896
     28 C          64.5626   92.0079   10.9777 C.3     1  UNL1        0.0758
     29 C          63.3914   91.0723   11.0338 C.3     1  UNL1        0.0609
@<TRIPOS>BOND
     1    20    21    1
     2    21     1    1
     3     1     2   ar
     4     2     3   ar
     5     3     4   ar
     6     4     7    1
     7     7     8    2
     8     7     9   am
     9     9    11    1
    10    11    12    1
    11    12    13   ar
    12    13    14   ar
    13    14    17    1
    14    17    18    1
    15    17    19    1
    16    14    15   ar
    17    15    16   ar
    18     4     5   ar
    19     5     6   ar
    20     6    22    1
    21    22    23    1
    22    23    24    1
    23    24    25    1
    24    25    26    1
    25    26    27    1
    26    26    28    1
    27    28    29    1
    28     6     1   ar
    29    29    23    1
    30    16    12   ar
    31     9    10    1
@<TRIPOS>MOLECULE
*****
 29 31 0 0 0
SMALL
GASTEIGER

@<TRIPOS>ATOM
      1 C          60.4269   88.1408    9.7796 C.ar    1  UNL1        0.1724
      2 C          59.9122   89.4329   10.3413 C.ar    1  UNL1        0.0402
      3 C          60.8749   90.4833   10.8101 C.ar    1  UNL1        0.0078
      4 C          62.3524   90.2416   10.7172 C.ar    1  UNL1        0.0566
      5 C          62.8671   88.9496   10.1556 C.ar    1  UNL1        0.0445
      6 C          61.9044   87.8992    9.6867 C.ar    1  UNL1        0.1722
      7 C          63.3151   91.2920   11.1861 C.2     1  UNL1        0.2463
      8 O          63.4086   91.6260   12.6454 O.2     1  UNL1       -0.2701
      9 N          64.1843   92.0085   10.1956 N.am    1  UNL1       -0.2943
     10 H          64.1230   91.7893    9.2378 H       1  UNL1        0.1501
     11 C          65.1471   93.0589   10.6644 C.3     1  UNL1        0.1579
     12 C          66.1647   92.7280   11.7157 C.ar    1  UNL1        0.1738
     13 C          66.0057   92.9349   13.1928 C.ar    1  UNL1        0.0553
     14 C          67.2626   92.4669   13.8644 C.ar    1  UNL1        0.1000
     15 N          68.1985   91.9708   12.8023 N.ar    1  UNL1       -0.0817
     16 O          67.5199   92.1322   11.4743 O.2     1  UNL1       -0.3563
     17 C          67.5358   92.4909   15.3391 C.3     1  UNL1        0.0436
     18 C          68.9489   92.4532   15.8409 C.3     1  UNL1        0.0064
     19 C          66.3958   92.5525   16.3121 C.3     1  UNL1        0.0064
     20 C          59.1254   86.9803    7.8537 C.3     1  UNL1        0.2526
     21 O          59.4642   87.0904    9.3107 O.3     1  UNL1       -0.4684
     22 O          62.4192   86.6070    9.1250 O.3     1  UNL1       -0.4760
     23 C          62.7448   85.4668   10.0435 C.3     1  UNL1        0.1688
     24 C          62.3078   85.5107   11.4778 C.3     1  UNL1        0.0609
     25 C          62.6334   84.3705   12.3964 C.3     1  UNL1        0.0758
     26 N          63.3961   83.1862   11.8807 N.3     1  UNL1       -0.2713
     27 C          63.7217   82.0460   12.7992 C.3     1  UNL1        0.0896
     28 C          63.8331   83.1423   10.4465 C.3     1  UNL1        0.0758
     29 C          63.5075   84.2825    9.5279 C.3     1  UNL1        0.0609
@<TRIPOS>BOND
     1    20    21    1
     2    21     1    1
     3     1     2   ar
     4     2     3   ar
     5     3     4   ar
     6     4     7    1
     7     7     8    2
     8     7     9   am
     9     9    11    1
    10    11    12    1
    11    12    13   ar
    12    13    14   ar
    13    14    17    1
    14    17    18    1
    15    17    19    1
    16    14    15   ar
    17    15    16   ar
    18     4     5   ar
    19     5     6   ar
    20     6    22    1
    21    22    23    1
    22    23    24    1
    23    24    25    1
    24    25    26    1
    25    26    27    1
    26    26    28    1
    27    28    29    1
    28     6     1   ar
    29    29    23    1
    30    16    12   ar
    31     9    10    1
@<TRIPOS>MOLECULE
*****
 29 31 0 0 0
SMALL
GASTEIGER

@<TRIPOS>ATOM
      1 C          63.6578   84.7621   13.7511 C.ar    1  UNL1        0.1724
      2 C          64.3548   85.4358   14.8957 C.ar    1  UNL1        0.0402
      3 C          64.5111   86.9276   14.9054 C.ar    1  UNL1        0.0078
      4 C          63.9703   87.7457   13.7704 C.ar    1  UNL1        0.0566
      5 C          63.2732   87.0720   12.6258 C.ar    1  UNL1        0.0445
      6 C          63.1170   85.5802   12.6161 C.ar    1  UNL1        0.1722
      7 C          64.1266   89.2375   13.7801 C.2     1  UNL1        0.2463
      8 O          64.8091   89.9126   14.9326 O.2     1  UNL1       -0.2701
      9 N          63.6003   90.0542   12.6373 N.am    1  UNL1       -0.2943
     10 H          63.1523   89.6110   11.8808 H       1  UNL1        0.1501
     11 C          63.7566   91.5460   12.6470 C.3     1  UNL1        0.1579
     12 C          65.0410   92.1685   12.1857 C.ar    1  UNL1        0.1738
     13 C          65.4715   92.3483   10.7600 C.ar    1  UNL1        0.0553
     14 C          66.8170   93.0115   10.7622 C.ar    1  UNL1        0.1000
     15 N          67.2179   93.2416   12.1893 N.ar    1  UNL1       -0.0817
     16 O          66.1203   92.7206   13.0689 O.2     1  UNL1       -0.3563
     17 C          67.6203   93.3799    9.5503 C.3     1  UNL1        0.0436
     18 C          67.4581   94.7342    8.9262 C.3     1  UNL1        0.0064
     19 C          68.5859   92.3939    8.9624 C.3     1  UNL1        0.0064
     20 C          62.3553   82.6315   14.4681 C.3     1  UNL1        0.2526
     21 O          63.5015   83.2703   13.7414 O.3     1  UNL1       -0.4684
     22 O          62.4199   84.9065   11.4714 O.3     1  UNL1       -0.4760
     23 C          61.6494   85.7235   10.4770 C.3     1  UNL1        0.1688
     24 C          61.7627   85.4237    9.0116 C.3     1  UNL1        0.0609
     25 C          60.9922   86.2407    8.0172 C.3     1  UNL1        0.0758
     26 N          60.1084   87.3575    8.4881 N.3     1  UNL1       -0.2713
     27 C          59.3380   88.1744    7.4937 C.3     1  UNL1        0.0896
     28 C          59.9951   87.6573    9.9534 C.3     1  UNL1        0.0758
     29 C          60.7656   86.8403   10.9479 C.3     1  UNL1        0.0609
@<TRIPOS>BOND
     1    20    21    1
     2    21     1    1
     3     1     2   ar
     4     2     3   ar
     5     3     4   ar
     6     4     7    1
     7     7     8    2
     8     7     9   am
     9     9    11    1
    10    11    12    1
    11    12    13   ar
    12    13    14   ar
    13    14    17    1
    14    17    18    1
    15    17    19    1
    16    14    15   ar
    17    15    16   ar
    18     4     5   ar
    19     5     6   ar
    20     6    22    1
    21    22    23    1
    22    23    24    1
    23    24    25    1
    24    25    26    1
    25    26    27    1
    26    26    28    1
    27    28    29    1
    28     6     1   ar
    29    29    23    1
    30    16    12   ar
    31     9    10    1
@<TRIPOS>MOLECULE
*****
 29 31 0 0 0
SMALL
GASTEIGER

@<TRIPOS>ATOM
      1 C          64.1485   83.5589   13.3467 C.ar    1  UNL1        0.1724
      2 C          64.6318   83.8402   14.7385 C.ar    1  UNL1        0.0402
      3 C          64.5227   85.2249   15.3048 C.ar    1  UNL1        0.0078
      4 C          63.9303   86.3283   14.4793 C.ar    1  UNL1        0.0566
      5 C          63.4470   86.0470   13.0874 C.ar    1  UNL1        0.0445
      6 C          63.5561   84.6623   12.5211 C.ar    1  UNL1        0.1722
      7 C          63.8213   87.7130   15.0455 C.2     1  UNL1        0.2463
      8 O          63.4085   87.9086   16.4743 O.2     1  UNL1       -0.2701
      9 N          64.1250   88.9020   14.1831 N.am    1  UNL1       -0.2943
     10 H          64.3960   88.7737   13.2454 H       1  UNL1        0.1501
     11 C          64.0160   90.2868   14.7494 C.3     1  UNL1        0.1579
     12 C          64.8042   91.4095   14.1425 C.ar    1  UNL1        0.1738
     13 C          65.0032   91.6552   12.6762 C.ar    1  UNL1        0.0553
     14 C          65.8538   92.8811   12.5228 C.ar    1  UNL1        0.1000
     15 N          66.1806   93.3931   13.8944 N.ar    1  UNL1       -0.0817
     16 O          65.5319   92.4835   14.8954 O.2     1  UNL1       -0.3563
     17 C          66.2994   93.4884   11.2257 C.3     1  UNL1        0.0436
     18 C          67.1897   92.7124   10.3009 C.3     1  UNL1        0.0064
     19 C          65.8547   94.8717   10.8534 C.3     1  UNL1        0.0064
     20 C          63.6200   81.0194   13.4946 C.3     1  UNL1        0.2526
     21 O          64.2575   82.1741   12.7804 O.3     1  UNL1       -0.4684
     22 O          63.0728   84.3810   11.1292 O.3     1  UNL1       -0.4760
     23 C          62.2480   85.4007   10.4013 C.3     1  UNL1        0.1688
     24 C          61.2630   86.2449   11.1544 C.3     1  UNL1        0.0609
     25 C          60.4383   87.2646   10.4265 C.3     1  UNL1        0.0758
     26 N          60.5985   87.4402    8.9454 N.3     1  UNL1       -0.2713
     27 C          59.7737   88.4599    8.2175 C.3     1  UNL1        0.0896
     28 C          61.5834   86.5960    8.1923 C.3     1  UNL1        0.0758
     29 C          62.4083   85.5762    8.9202 C.3     1  UNL1        0.0609
@<TRIPOS>BOND
     1    20    21    1
     2    21     1    1
     3     1     2   ar
     4     2     3   ar
     5     3     4   ar
     6     4     7    1
     7     7     8    2
     8     7     9   am
     9     9    11    1
    10    11    12    1
    11    12    13   ar
    12    13    14   ar
    13    14    17    1
    14    17    18    1
    15    17    19    1
    16    14    15   ar
    17    15    16   ar
    18     4     5   ar
    19     5     6   ar
    20     6    22    1
    21    22    23    1
    22    23    24    1
    23    24    25    1
    24    25    26    1
    25    26    27    1
    26    26    28    1
    27    28    29    1
    28     6     1   ar
    29    29    23    1
    30    16    12   ar
    31     9    10    1
@<TRIPOS>MOLECULE
*****
 29 31 0 0 0
SMALL
GASTEIGER

@<TRIPOS>ATOM
      1 C          60.0914   88.3875    8.3638 C.ar    1  UNL1        0.1724
      2 C          60.0595   86.9765    7.8558 C.ar    1  UNL1        0.0402
      3 C          60.9387   85.9343    8.4808 C.ar    1  UNL1        0.0078
      4 C          61.8499   86.3030    9.6138 C.ar    1  UNL1        0.0566
      5 C          61.8819   87.7139   10.1218 C.ar    1  UNL1        0.0445
      6 C          61.0026   88.7562    9.4968 C.ar    1  UNL1        0.1722
      7 C          62.7292   85.2607   10.2387 C.2     1  UNL1        0.2463
      8 O          62.8363   85.1671   11.7320 O.2     1  UNL1       -0.2701
      9 N          63.5013   84.3121    9.3705 N.am    1  UNL1       -0.2943
     10 H          63.4311   84.3736    8.3905 H       1  UNL1        0.1501
     11 C          64.3806   83.2698    9.9955 C.3     1  UNL1        0.1579
     12 C          63.9849   82.6369   11.2967 C.ar    1  UNL1        0.1738
     13 C          62.8685   81.6552   11.4961 C.ar    1  UNL1        0.0553
     14 C          62.8298   81.2861   12.9495 C.ar    1  UNL1        0.1000
     15 N          63.9224   82.0398   13.6483 N.ar    1  UNL1       -0.0817
     16 O          64.6363   82.8746   12.6268 O.2     1  UNL1       -0.3563
     17 C          61.8675   80.3311   13.5913 C.3     1  UNL1        0.0436
     18 C          62.2004   78.8706   13.6701 C.3     1  UNL1        0.0064
     19 C          60.5724   80.8366   14.1544 C.3     1  UNL1        0.0064
     20 C          59.3474   89.7480    6.2792 C.3     1  UNL1        0.2526
     21 O          59.2122   89.4297    7.7388 O.3     1  UNL1       -0.4684
     22 O          61.0346   90.1672   10.0048 O.3     1  UNL1       -0.4760
     23 C          62.2259   90.6618   10.7705 C.3     1  UNL1        0.1688
     24 C          63.2759   91.4793   10.0781 C.3     1  UNL1        0.0609
     25 C          64.4671   91.9739   10.8438 C.3     1  UNL1        0.0758
     26 N          64.6084   91.6511   12.3018 N.3     1  UNL1       -0.2713
     27 C          65.7996   92.1457   13.0675 C.3     1  UNL1        0.0896
     28 C          63.5584   90.8337   12.9942 C.3     1  UNL1        0.0758
     29 C          62.3671   90.3391   12.2285 C.3     1  UNL1        0.0609
@<TRIPOS>BOND
     1    20    21    1
     2    21     1    1
     3     1     2   ar
     4     2     3   ar
     5     3     4   ar
     6     4     7    1
     7     7     8    2
     8     7     9   am
     9     9    11    1
    10    11    12    1
    11    12    13   ar
    12    13    14   ar
    13    14    17    1
    14    17    18    1
    15    17    19    1
    16    14    15   ar
    17    15    16   ar
    18     4     5   ar
    19     5     6   ar
    20     6    22    1
    21    22    23    1
    22    23    24    1
    23    24    25    1
    24    25    26    1
    25    26    27    1
    26    26    28    1
    27    28    29    1
    28     6     1   ar
    29    29    23    1
    30    16    12   ar
    31     9    10    1
@<TRIPOS>MOLECULE
*****
 29 31 0 0 0
SMALL
GASTEIGER

@<TRIPOS>ATOM
      1 C          63.4887   81.9620   11.2047 C.ar    1  UNL1        0.1724
      2 C          63.5161   81.4599   12.6178 C.ar    1  UNL1        0.0402
      3 C          63.7667   82.4138   13.7480 C.ar    1  UNL1        0.0078
      4 C          63.9899   83.8698   13.4650 C.ar    1  UNL1        0.0566
      5 C          63.9625   84.3719   12.0518 C.ar    1  UNL1        0.0445
      6 C          63.7119   83.4180   10.9217 C.ar    1  UNL1        0.1722
      7 C          64.2405   84.8237   14.5951 C.2     1  UNL1        0.2463
      8 O          65.6427   85.2381   14.9299 O.2     1  UNL1       -0.2701
      9 N          63.0889   85.3631   15.3906 N.am    1  UNL1       -0.2943
     10 H          62.1686   85.0911   15.1709 H       1  UNL1        0.1501
     11 C          63.3396   86.3170   16.5208 C.3     1  UNL1        0.1579
     12 C          63.4848   87.7845   16.2455 C.ar    1  UNL1        0.1738
     13 C          64.1148   88.3951   15.0288 C.ar    1  UNL1        0.0553
     14 C          64.0449   89.8868   15.1698 C.ar    1  UNL1        0.1000
     15 N          63.3717   90.1981   16.4737 N.ar    1  UNL1       -0.0817
     16 O          63.0255   88.8987   17.1384 O.2     1  UNL1       -0.3563
     17 C          64.5581   90.8910   14.1807 C.3     1  UNL1        0.0436
     18 C          63.8789   91.0504   12.8528 C.3     1  UNL1        0.0064
     19 C          65.7504   91.7356   14.5196 C.3     1  UNL1        0.0064
     20 C          62.9352   79.5675   10.3622 C.3     1  UNL1        0.2526
     21 O          63.2381   81.0081   10.0745 O.3     1  UNL1       -0.4684
     22 O          63.6845   83.9202    9.5084 O.3     1  UNL1       -0.4760
     23 C          62.5790   84.8274    9.0562 C.3     1  UNL1        0.1688
     24 C          62.1138   84.7900    7.6305 C.3     1  UNL1        0.0609
     25 C          61.0083   85.6972    7.1783 C.3     1  UNL1        0.0758
     26 N          60.3678   86.6420    8.1516 N.3     1  UNL1       -0.2713
     27 C          59.2622   87.5492    7.6993 C.3     1  UNL1        0.0896
     28 C          60.8329   86.6794    9.5771 C.3     1  UNL1        0.0758
     29 C          61.9385   85.7722   10.0295 C.3     1  UNL1        0.0609
@<TRIPOS>BOND
     1    20    21    1
     2    21     1    1
     3     1     2   ar
     4     2     3   ar
     5     3     4   ar
     6     4     7    1
     7     7     8    2
     8     7     9   am
     9     9    11    1
    10    11    12    1
    11    12    13   ar
    12    13    14   ar
    13    14    17    1
    14    17    18    1
    15    17    19    1
    16    14    15   ar
    17    15    16   ar
    18     4     5   ar
    19     5     6   ar
    20     6    22    1
    21    22    23    1
    22    23    24    1
    23    24    25    1
    24    25    26    1
    25    26    27    1
    26    26    28    1
    27    28    29    1
    28     6     1   ar
    29    29    23    1
    30    16    12   ar
    31     9    10    1
