@<TRIPOS>MOLECULE
*****
 28 31 0 0 0
SMALL
GASTEIGER

@<TRIPOS>ATOM
      1 C          64.2172   90.0789   15.1255 C.ar    1  UNL1       -0.0001
      2 C          63.4724   89.9775   16.4235 C.ar    1  UNL1       -0.0003
      3 C          63.0798   88.6328   16.9599 C.ar    1  UNL1       -0.0032
      4 C          63.4320   87.3896   16.1982 C.ar    1  UNL1       -0.0088
      5 C          64.1768   87.4910   14.9002 C.ar    1  UNL1       -0.0088
      6 C          64.5694   88.8357   14.3638 C.ar    1  UNL1       -0.0032
      7 C          64.3848   86.1013   14.3752 C.3     1  UNL1        0.0991
      8 N          63.7685   85.1410   15.3489 N.3     1  UNL1       -0.2649
      9 C          63.1796   85.9372   16.4755 C.3     1  UNL1        0.0991
     10 C          65.8297   91.5602   13.7271 C.2     1  UNL1        0.0598
     11 C          64.6098   91.4236   14.5892 C.2     1  UNL1        0.0047
     12 O          66.1137   94.1209   14.0623 O.2     1  UNL1       -0.2681
     13 C          66.2223   92.9049   13.1908 C.2     1  UNL1        0.2679
     14 N          66.7236   93.0336   11.7828 N.am    1  UNL1       -0.1934
     15 O          67.1162   94.3783   11.2465 O.3     1  UNL1       -0.2949
     16 H          66.7949   92.2355   11.2108 H       1  UNL1        0.1825
     17 H          66.9862   95.0509   11.9332 H       1  UNL1        0.2414
     18 C          63.7451   83.6468   15.2188 C.3     1  UNL1        0.0774
     19 C          62.9282   83.0006   14.1394 C.3     1  UNL1        0.0453
     20 C          63.3973   83.0452   12.7154 C.2     1  UNL1       -0.0005
     21 C          64.3749   82.1019   12.0792 C.2     1  UNL1        0.0942
     22 N          64.5530   82.5147   10.6481 N.2     1  UNL1       -0.2482
     23 C          63.6856   83.7130   10.3999 C.2     1  UNL1        0.0631
     24 C          63.4539   84.5480    9.1756 C.3     1  UNL1        0.0717
     25 C          62.5079   85.7109    9.2289 C.2     1  UNL1       -0.0198
     26 C          61.7937   86.0388   10.5065 C.2     1  UNL1       -0.0042
     27 C          62.0254   85.2038   11.7308 C.2     1  UNL1        0.0006
     28 C          62.9714   84.0409   11.6776 C.2     1  UNL1        0.0114
@<TRIPOS>BOND
     1    12    13    2
     2    13    10    1
     3    10    11    2
     4    11     1    1
     5     1     2   ar
     6     2     3   ar
     7     3     4   ar
     8     4     5   ar
     9     5     6   ar
    10     5     7    1
    11     7     8    1
    12     8    18    1
    13    18    19    1
    14    19    20    1
    15    20    21    2
    16    21    22    1
    17    22    23    2
    18    23    24    1
    19    24    25    1
    20    25    26    2
    21    26    27    1
    22    27    28    2
    23     8     9    1
    24    13    14   am
    25    14    15    1
    26     6     1   ar
    27    28    20    1
    28     9     4    1
    29    28    23    1
    30    14    16    1
    31    15    17    1
@<TRIPOS>MOLECULE
*****
 28 31 0 0 0
SMALL
GASTEIGER

@<TRIPOS>ATOM
      1 C          59.7688   88.2138    8.0187 C.ar    1  UNL1       -0.0001
      2 C          60.0153   86.7527    7.7862 C.ar    1  UNL1       -0.0003
      3 C          60.8737   85.9758    8.7399 C.ar    1  UNL1       -0.0032
      4 C          61.4855   86.6600    9.9262 C.ar    1  UNL1       -0.0088
      5 C          61.2389   88.1212   10.1588 C.ar    1  UNL1       -0.0088
      6 C          60.3806   88.8981    9.2050 C.ar    1  UNL1       -0.0032
      7 C          61.9700   88.5220   11.4058 C.3     1  UNL1        0.0991
      8 N          62.6684   87.3084   11.9439 N.3     1  UNL1       -0.2649
      9 C          62.3689   86.1577   11.0295 C.3     1  UNL1        0.0991
     10 C          59.4870   90.1543    6.3143 C.2     1  UNL1        0.0598
     11 C          58.9104   88.9907    7.0650 C.2     1  UNL1        0.0047
     12 O          59.2606   91.8762    4.3820 O.2     1  UNL1       -0.2681
     13 C          58.6287   90.9312    5.3606 C.2     1  UNL1        0.2679
     14 N          57.1383   90.7631    5.3854 N.am    1  UNL1       -0.1934
     15 O          56.2799   91.5400    4.4316 O.3     1  UNL1       -0.2949
     16 H          56.7235   90.1429    6.0277 H       1  UNL1        0.1825
     17 H          56.8420   92.0993    3.8729 H       1  UNL1        0.2414
     18 C          63.5172   87.2549   13.1796 C.3     1  UNL1        0.0774
     19 C          64.2589   85.9980   13.5261 C.3     1  UNL1        0.0453
     20 C          63.5354   84.8544   14.1730 C.2     1  UNL1       -0.0005
     21 C          62.9755   84.8394   15.5645 C.2     1  UNL1        0.0942
     22 N          62.3389   83.5006   15.7935 N.2     1  UNL1       -0.2482
     23 C          62.5053   82.6883   14.5435 C.2     1  UNL1        0.0631
     24 C          62.0790   81.2948   14.1879 C.3     1  UNL1        0.0717
     25 C          62.3923   80.7380   12.8307 C.2     1  UNL1       -0.0198
     26 C          63.1318   81.5747   11.8292 C.2     1  UNL1       -0.0042
     27 C          63.5581   82.9681   12.1848 C.2     1  UNL1        0.0006
     28 C          63.2449   83.5250   13.5420 C.2     1  UNL1        0.0114
@<TRIPOS>BOND
     1    12    13    2
     2    13    10    1
     3    10    11    2
     4    11     1    1
     5     1     2   ar
     6     2     3   ar
     7     3     4   ar
     8     4     5   ar
     9     5     6   ar
    10     5     7    1
    11     7     8    1
    12     8    18    1
    13    18    19    1
    14    19    20    1
    15    20    21    2
    16    21    22    1
    17    22    23    2
    18    23    24    1
    19    24    25    1
    20    25    26    2
    21    26    27    1
    22    27    28    2
    23     8     9    1
    24    13    14   am
    25    14    15    1
    26     6     1   ar
    27    28    20    1
    28     9     4    1
    29    28    23    1
    30    14    16    1
    31    15    17    1
@<TRIPOS>MOLECULE
*****
 28 31 0 0 0
SMALL
GASTEIGER

@<TRIPOS>ATOM
      1 C          65.1412   92.1693   12.2852 C.ar    1  UNL1       -0.0001
      2 C          64.9167   92.5280   10.8462 C.ar    1  UNL1       -0.0003
      3 C          63.8830   91.7957   10.0431 C.ar    1  UNL1       -0.0032
      4 C          63.0737   90.7046   10.6791 C.ar    1  UNL1       -0.0088
      5 C          63.2981   90.3459   12.1181 C.ar    1  UNL1       -0.0088
      6 C          64.3319   91.0782   12.9212 C.ar    1  UNL1       -0.0032
      7 C          62.3554   89.2337   12.4711 C.3     1  UNL1        0.0991
      8 N          61.5484   88.9051   11.2502 N.3     1  UNL1       -0.2649
      9 C          61.9923   89.8142   10.1426 C.3     1  UNL1        0.0991
     10 C          67.2076   92.1345   13.8596 C.2     1  UNL1        0.0598
     11 C          66.1750   92.9017   13.0883 C.2     1  UNL1        0.0047
     12 O          69.6992   92.6028   14.4278 O.2     1  UNL1       -0.2681
     13 C          68.2414   92.8668   14.6626 C.2     1  UNL1        0.2679
     14 N          67.8174   93.8633   15.7006 N.am    1  UNL1       -0.1934
     15 O          68.8511   94.5957   16.5037 O.3     1  UNL1       -0.2949
     16 H          66.8606   94.0366   15.8547 H       1  UNL1        0.1825
     17 H          69.7364   94.3099   16.2288 H       1  UNL1        0.2414
     18 C          60.4842   87.8523   11.1537 C.3     1  UNL1        0.0774
     19 C          60.3187   87.0673    9.8863 C.3     1  UNL1        0.0453
     20 C          61.4011   86.1311    9.4371 C.2     1  UNL1       -0.0005
     21 C          61.8302   85.8950    8.0193 C.2     1  UNL1        0.0942
     22 N          62.9388   84.8845    8.0327 N.2     1  UNL1       -0.2482
     23 C          63.1948   84.4963    9.4588 C.2     1  UNL1        0.0631
     24 C          64.1705   83.5408   10.0792 C.3     1  UNL1        0.0717
     25 C          64.1959   83.3557   11.5675 C.2     1  UNL1       -0.0198
     26 C          63.2455   84.1261   12.4354 C.2     1  UNL1       -0.0042
     27 C          62.2699   85.0816   11.8151 C.2     1  UNL1        0.0006
     28 C          62.2444   85.2667   10.3267 C.2     1  UNL1        0.0114
@<TRIPOS>BOND
     1    12    13    2
     2    13    10    1
     3    10    11    2
     4    11     1    1
     5     1     2   ar
     6     2     3   ar
     7     3     4   ar
     8     4     5   ar
     9     5     6   ar
    10     5     7    1
    11     7     8    1
    12     8    18    1
    13    18    19    1
    14    19    20    1
    15    20    21    2
    16    21    22    1
    17    22    23    2
    18    23    24    1
    19    24    25    1
    20    25    26    2
    21    26    27    1
    22    27    28    2
    23     8     9    1
    24    13    14   am
    25    14    15    1
    26     6     1   ar
    27    28    20    1
    28     9     4    1
    29    28    23    1
    30    14    16    1
    31    15    17    1
@<TRIPOS>MOLECULE
*****
 28 31 0 0 0
SMALL
GASTEIGER

@<TRIPOS>ATOM
      1 C          64.8163   91.2085   14.6198 C.ar    1  UNL1       -0.0001
      2 C          64.1140   91.5225   15.9075 C.ar    1  UNL1       -0.0003
      3 C          63.4997   90.4180   16.7154 C.ar    1  UNL1       -0.0032
      4 C          63.5879   88.9995   16.2357 C.ar    1  UNL1       -0.0088
      5 C          64.2902   88.6856   14.9481 C.ar    1  UNL1       -0.0088
      6 C          64.9044   89.7901   14.1401 C.ar    1  UNL1       -0.0032
      7 C          64.2184   87.2031   14.7304 C.3     1  UNL1        0.0991
      8 N          63.4716   86.6010   15.8835 N.3     1  UNL1       -0.2649
      9 C          63.0820   87.7112   16.8139 C.3     1  UNL1        0.0991
     10 C          65.1675   92.3995   12.3377 C.2     1  UNL1        0.0598
     11 C          65.4305   92.3130   13.8119 C.2     1  UNL1        0.0047
     12 O          66.4099   94.6782   12.2200 O.2     1  UNL1       -0.2681
     13 C          65.7817   93.5040   11.5297 C.2     1  UNL1        0.2679
     14 N          65.7677   93.4342   10.0313 N.am    1  UNL1       -0.1934
     15 O          66.3819   94.5387    9.2234 O.3     1  UNL1       -0.2949
     16 H          65.3554   92.6635    9.5782 H       1  UNL1        0.1825
     17 H          66.7404   95.2147    9.8196 H       1  UNL1        0.2414
     18 C          63.1679   85.1443   16.0730 C.3     1  UNL1        0.0774
     19 C          62.1186   84.4812   15.2308 C.3     1  UNL1        0.0453
     20 C          62.4510   84.0229   13.8418 C.2     1  UNL1       -0.0005
     21 C          62.8173   84.9062   12.6860 C.2     1  UNL1        0.0942
     22 N          63.0682   84.0300   11.4945 N.2     1  UNL1       -0.2482
     23 C          62.8570   82.6055   11.9139 C.2     1  UNL1        0.0631
     24 C          62.9627   81.3117   11.1623 C.3     1  UNL1        0.0717
     25 C          62.6871   80.0135   11.8614 C.2     1  UNL1       -0.0198
     26 C          62.3057   80.0091   13.3121 C.2     1  UNL1       -0.0042
     27 C          62.1999   81.3028   14.0637 C.2     1  UNL1        0.0006
     28 C          62.4756   82.6011   13.3646 C.2     1  UNL1        0.0114
@<TRIPOS>BOND
     1    12    13    2
     2    13    10    1
     3    10    11    2
     4    11     1    1
     5     1     2   ar
     6     2     3   ar
     7     3     4   ar
     8     4     5   ar
     9     5     6   ar
    10     5     7    1
    11     7     8    1
    12     8    18    1
    13    18    19    1
    14    19    20    1
    15    20    21    2
    16    21    22    1
    17    22    23    2
    18    23    24    1
    19    24    25    1
    20    25    26    2
    21    26    27    1
    22    27    28    2
    23     8     9    1
    24    13    14   am
    25    14    15    1
    26     6     1   ar
    27    28    20    1
    28     9     4    1
    29    28    23    1
    30    14    16    1
    31    15    17    1
@<TRIPOS>MOLECULE
*****
 28 31 0 0 0
SMALL
GASTEIGER

@<TRIPOS>ATOM
      1 C          60.0403   88.3737    8.2976 C.ar    1  UNL1       -0.0001
      2 C          60.2933   86.8979    8.3865 C.ar    1  UNL1       -0.0003
      3 C          61.1735   86.3519    9.4715 C.ar    1  UNL1       -0.0032
      4 C          61.8006   87.2817   10.4676 C.ar    1  UNL1       -0.0088
      5 C          61.5476   88.7574   10.3787 C.ar    1  UNL1       -0.0088
      6 C          60.6674   89.3035    9.2936 C.ar    1  UNL1       -0.0032
      7 C          62.2970   89.4243   11.4939 C.3     1  UNL1        0.0991
      8 N          63.0132   88.3606   12.2721 N.3     1  UNL1       -0.2649
      9 C          62.7063   87.0364   11.6378 C.3     1  UNL1        0.0991
     10 C          59.5094   90.2169    6.5453 C.2     1  UNL1        0.0598
     11 C          59.1602   88.9197    7.2126 C.2     1  UNL1        0.0047
     12 O          59.2345   91.5064    4.3067 O.2     1  UNL1       -0.2681
     13 C          58.6293   90.7629    5.4603 C.2     1  UNL1        0.2679
     14 N          57.1438   90.5654    5.5289 N.am    1  UNL1       -0.1934
     15 O          56.2637   91.1114    4.4439 O.3     1  UNL1       -0.2949
     16 H          56.7466   90.0774    6.2861 H       1  UNL1        0.1825
     17 H          56.8099   91.5604    3.7798 H       1  UNL1        0.2414
     18 C          63.8834   88.5822   13.4737 C.3     1  UNL1        0.0774
     19 C          63.6491   89.7688   14.3609 C.3     1  UNL1        0.0453
     20 C          64.5604   90.9573   14.2799 C.2     1  UNL1       -0.0005
     21 C          65.3112   91.5722   15.4238 C.2     1  UNL1        0.0942
     22 N          66.0958   92.7346   14.8917 N.2     1  UNL1       -0.2482
     23 C          65.8300   92.8382   13.4191 C.2     1  UNL1        0.0631
     24 C          66.3294   93.7908   12.3736 C.3     1  UNL1        0.0717
     25 C          65.8799   93.6450   10.9500 C.2     1  UNL1       -0.0198
     26 C          64.9310   92.5465   10.5719 C.2     1  UNL1       -0.0042
     27 C          64.4316   91.5940   11.6174 C.2     1  UNL1        0.0006
     28 C          64.8811   91.7398   13.0411 C.2     1  UNL1        0.0114
@<TRIPOS>BOND
     1    12    13    2
     2    13    10    1
     3    10    11    2
     4    11     1    1
     5     1     2   ar
     6     2     3   ar
     7     3     4   ar
     8     4     5   ar
     9     5     6   ar
    10     5     7    1
    11     7     8    1
    12     8    18    1
    13    18    19    1
    14    19    20    1
    15    20    21    2
    16    21    22    1
    17    22    23    2
    18    23    24    1
    19    24    25    1
    20    25    26    2
    21    26    27    1
    22    27    28    2
    23     8     9    1
    24    13    14   am
    25    14    15    1
    26     6     1   ar
    27    28    20    1
    28     9     4    1
    29    28    23    1
    30    14    16    1
    31    15    17    1
@<TRIPOS>MOLECULE
*****
 28 31 0 0 0
SMALL
GASTEIGER

@<TRIPOS>ATOM
      1 C          59.6272   88.6322    7.7420 C.ar    1  UNL1       -0.0001
      2 C          59.4137   87.1630    7.5278 C.ar    1  UNL1       -0.0003
      3 C          60.0733   86.1688    8.4369 C.ar    1  UNL1       -0.0032
      4 C          60.9465   86.6438    9.5602 C.ar    1  UNL1       -0.0088
      5 C          61.1600   88.1129    9.7744 C.ar    1  UNL1       -0.0088
      6 C          60.5004   89.1071    8.8654 C.ar    1  UNL1       -0.0032
      7 C          62.0678   88.2819   10.9567 C.3     1  UNL1        0.0991
      8 N          62.4152   86.9172   11.4730 N.3     1  UNL1       -0.2649
      9 C          61.7223   85.9047   10.6100 C.3     1  UNL1        0.0991
     10 C          59.7800   90.3586    5.8066 C.2     1  UNL1        0.0598
     11 C          58.9675   89.6263    6.8330 C.2     1  UNL1        0.0047
     12 O          57.6325   91.5379    4.9421 O.2     1  UNL1       -0.2681
     13 C          59.1203   91.3528    4.8975 C.2     1  UNL1        0.2679
     14 N          59.9486   92.1619    3.9438 N.am    1  UNL1       -0.1934
     15 O          59.2889   93.1561    3.0348 O.3     1  UNL1       -0.2949
     16 H          60.9251   92.0404    3.9146 H       1  UNL1        0.1825
     17 H          58.3314   93.1507    3.1902 H       1  UNL1        0.2414
     18 C          63.3003   86.6174   12.6465 C.3     1  UNL1        0.0774
     19 C          63.1228   85.3402   13.4128 C.3     1  UNL1        0.0453
     20 C          63.4183   84.0243   12.7562 C.2     1  UNL1       -0.0005
     21 C          64.3847   83.7976   11.6316 C.2     1  UNL1        0.0942
     22 N          64.3630   82.3373   11.2892 N.2     1  UNL1       -0.2482
     23 C          63.3832   81.6616   12.2022 C.2     1  UNL1        0.0631
     24 C          62.9473   80.2317   12.3252 C.3     1  UNL1        0.0717
     25 C          61.9275   79.8444   13.3547 C.2     1  UNL1       -0.0198
     26 C          61.3437   80.8870   14.2613 C.2     1  UNL1       -0.0042
     27 C          61.7796   82.3169   14.1384 C.2     1  UNL1        0.0006
     28 C          62.7994   82.7043   13.1088 C.2     1  UNL1        0.0114
@<TRIPOS>BOND
     1    12    13    2
     2    13    10    1
     3    10    11    2
     4    11     1    1
     5     1     2   ar
     6     2     3   ar
     7     3     4   ar
     8     4     5   ar
     9     5     6   ar
    10     5     7    1
    11     7     8    1
    12     8    18    1
    13    18    19    1
    14    19    20    1
    15    20    21    2
    16    21    22    1
    17    22    23    2
    18    23    24    1
    19    24    25    1
    20    25    26    2
    21    26    27    1
    22    27    28    2
    23     8     9    1
    24    13    14   am
    25    14    15    1
    26     6     1   ar
    27    28    20    1
    28     9     4    1
    29    28    23    1
    30    14    16    1
    31    15    17    1
@<TRIPOS>MOLECULE
*****
 28 31 0 0 0
SMALL
GASTEIGER

@<TRIPOS>ATOM
      1 C          64.3486   92.0089   11.2795 C.ar    1  UNL1       -0.0001
      2 C          63.4310   91.2031   10.4084 C.ar    1  UNL1       -0.0003
      3 C          62.9765   89.8443   10.8526 C.ar    1  UNL1       -0.0032
      4 C          63.4397   89.2914   12.1677 C.ar    1  UNL1       -0.0088
      5 C          64.3572   90.0971   13.0388 C.ar    1  UNL1       -0.0088
      6 C          64.8117   91.4559   12.5946 C.ar    1  UNL1       -0.0032
      7 C          64.6456   89.2964   14.2740 C.3     1  UNL1        0.0991
      8 N          63.9062   87.9958   14.1664 N.3     1  UNL1       -0.2649
      9 C          63.1609   87.9927   12.8646 C.3     1  UNL1        0.0991
     10 C          66.2559   93.7333   10.9077 C.2     1  UNL1        0.0598
     11 C          64.8030   93.3676   10.8354 C.2     1  UNL1        0.0047
     12 O          66.3790   96.3004   11.2882 O.2     1  UNL1       -0.2681
     13 C          66.7104   95.0921   10.4636 C.2     1  UNL1        0.2679
     14 N          67.4962   95.2425    9.1947 N.am    1  UNL1       -0.1934
     15 O          67.9507   96.6012    8.7506 O.3     1  UNL1       -0.2949
     16 H          67.7137   94.4494    8.6535 H       1  UNL1        0.1825
     17 H          67.6554   97.2665    9.3918 H       1  UNL1        0.2414
     18 C          63.9112   86.8920   15.1821 C.3     1  UNL1        0.0774
     19 C          64.5910   85.5911   14.8727 C.3     1  UNL1        0.0453
     20 C          63.7731   84.3619   14.6079 C.2     1  UNL1       -0.0005
     21 C          62.8488   83.6916   15.5807 C.2     1  UNL1        0.0942
     22 N          62.2404   82.5026   14.8978 N.2     1  UNL1       -0.2482
     23 C          62.7887   82.4382   13.5031 C.2     1  UNL1        0.0631
     24 C          62.5478   81.4817   12.3731 C.3     1  UNL1        0.0717
     25 C          63.2541   81.6743   11.0639 C.2     1  UNL1       -0.0198
     26 C          64.2014   82.8234   10.8848 C.2     1  UNL1       -0.0042
     27 C          64.4423   83.7799   12.0147 C.2     1  UNL1        0.0006
     28 C          63.7359   83.5874   13.3240 C.2     1  UNL1        0.0114
@<TRIPOS>BOND
     1    12    13    2
     2    13    10    1
     3    10    11    2
     4    11     1    1
     5     1     2   ar
     6     2     3   ar
     7     3     4   ar
     8     4     5   ar
     9     5     6   ar
    10     5     7    1
    11     7     8    1
    12     8    18    1
    13    18    19    1
    14    19    20    1
    15    20    21    2
    16    21    22    1
    17    22    23    2
    18    23    24    1
    19    24    25    1
    20    25    26    2
    21    26    27    1
    22    27    28    2
    23     8     9    1
    24    13    14   am
    25    14    15    1
    26     6     1   ar
    27    28    20    1
    28     9     4    1
    29    28    23    1
    30    14    16    1
    31    15    17    1
@<TRIPOS>MOLECULE
*****
 28 31 0 0 0
SMALL
GASTEIGER

@<TRIPOS>ATOM
      1 C          60.2562   88.1556    8.5076 C.ar    1  UNL1       -0.0001
      2 C          60.5110   86.8936    7.7381 C.ar    1  UNL1       -0.0003
      3 C          61.2226   85.7468    8.3927 C.ar    1  UNL1       -0.0032
      4 C          61.6794   85.8620    9.8167 C.ar    1  UNL1       -0.0088
      5 C          61.4246   87.1241   10.5863 C.ar    1  UNL1       -0.0088
      6 C          60.7130   88.2709    9.9317 C.ar    1  UNL1       -0.0032
      7 C          61.9874   86.9477   11.9655 C.3     1  UNL1        0.0991
      8 N          62.5900   85.5766   12.0483 N.3     1  UNL1       -0.2649
      9 C          62.3997   84.9056   10.7203 C.3     1  UNL1        0.0991
     10 C          59.3368   89.3067    6.3676 C.2     1  UNL1        0.0598
     11 C          59.5446   89.3025    7.8531 C.2     1  UNL1        0.0047
     12 O          59.4077   91.6211    5.1894 O.2     1  UNL1       -0.2681
     13 C          58.6252   90.4535    5.7130 C.2     1  UNL1        0.2679
     14 N          57.1310   90.4326    5.5821 N.am    1  UNL1       -0.1934
     15 O          56.4194   91.5794    4.9275 O.3     1  UNL1       -0.2949
     16 H          56.6174   89.6662    5.9258 H       1  UNL1        0.1825
     17 H          57.0674   92.2450    4.6482 H       1  UNL1        0.2414
     18 C          63.2646   84.9810   13.2485 C.3     1  UNL1        0.0774
     19 C          64.2780   85.7802   14.0129 C.3     1  UNL1        0.0453
     20 C          63.8375   86.6744   15.1337 C.2     1  UNL1       -0.0005
     21 C          63.2230   86.2288   16.4275 C.2     1  UNL1        0.0942
     22 N          62.9399   87.4502   17.2510 N.2     1  UNL1       -0.2482
     23 C          63.3794   88.6505   16.4662 C.2     1  UNL1        0.0631
     24 C          63.3461   90.1182   16.7740 C.3     1  UNL1        0.0717
     25 C          63.8676   91.1064   15.7732 C.2     1  UNL1       -0.0198
     26 C          64.4223   90.6269   14.4647 C.2     1  UNL1       -0.0042
     27 C          64.4556   89.1593   14.1569 C.2     1  UNL1        0.0006
     28 C          63.9341   88.1710   15.1576 C.2     1  UNL1        0.0114
@<TRIPOS>BOND
     1    12    13    2
     2    13    10    1
     3    10    11    2
     4    11     1    1
     5     1     2   ar
     6     2     3   ar
     7     3     4   ar
     8     4     5   ar
     9     5     6   ar
    10     5     7    1
    11     7     8    1
    12     8    18    1
    13    18    19    1
    14    19    20    1
    15    20    21    2
    16    21    22    1
    17    22    23    2
    18    23    24    1
    19    24    25    1
    20    25    26    2
    21    26    27    1
    22    27    28    2
    23     8     9    1
    24    13    14   am
    25    14    15    1
    26     6     1   ar
    27    28    20    1
    28     9     4    1
    29    28    23    1
    30    14    16    1
    31    15    17    1
@<TRIPOS>MOLECULE
*****
 28 31 0 0 0
SMALL
GASTEIGER

@<TRIPOS>ATOM
      1 C          59.9273   88.1329    8.4473 C.ar    1  UNL1       -0.0001
      2 C          59.8544   88.3171    9.9342 C.ar    1  UNL1       -0.0003
      3 C          60.6492   87.4242   10.8403 C.ar    1  UNL1       -0.0032
      4 C          61.5168   86.3472   10.2596 C.ar    1  UNL1       -0.0088
      5 C          61.5896   86.1630    8.7728 C.ar    1  UNL1       -0.0088
      6 C          60.7949   87.0559    7.8667 C.ar    1  UNL1       -0.0032
      7 C          62.5250   85.0244    8.4920 C.3     1  UNL1        0.0991
      8 N          63.0302   84.5049    9.8053 N.3     1  UNL1       -0.2649
      9 C          62.4071   85.3224   10.8978 C.3     1  UNL1        0.0991
     10 C          59.8249   89.8145    6.4696 C.2     1  UNL1        0.0598
     11 C          59.1325   89.0257    7.5412 C.2     1  UNL1        0.0047
     12 O          57.5422   90.5439    5.4658 O.2     1  UNL1       -0.2681
     13 C          59.0301   90.7074    5.5634 C.2     1  UNL1        0.2679
     14 N          59.7232   91.7637    4.7548 N.am    1  UNL1       -0.1934
     15 O          58.9284   92.6566    3.8487 O.3     1  UNL1       -0.2949
     16 H          60.6997   91.8710    4.8189 H       1  UNL1        0.1825
     17 H          57.9894   92.4197    3.9036 H       1  UNL1        0.2414
     18 C          63.9900   83.3676    9.9932 C.3     1  UNL1        0.0774
     19 C          64.5913   83.1089   11.3429 C.3     1  UNL1        0.0453
     20 C          63.7087   83.0177   12.5522 C.2     1  UNL1       -0.0005
     21 C          62.6700   81.9662   12.8083 C.2     1  UNL1        0.0942
     22 N          62.0291   82.2606   14.1322 N.2     1  UNL1       -0.2482
     23 C          62.6716   83.4940   14.6942 C.2     1  UNL1        0.0631
     24 C          62.4456   84.2515   15.9690 C.3     1  UNL1        0.0717
     25 C          63.2576   85.4769   16.2672 C.2     1  UNL1       -0.0198
     26 C          64.2957   85.9448   15.2907 C.2     1  UNL1       -0.0042
     27 C          64.5217   85.1873   14.0160 C.2     1  UNL1        0.0006
     28 C          63.7097   83.9618   13.7177 C.2     1  UNL1        0.0114
@<TRIPOS>BOND
     1    12    13    2
     2    13    10    1
     3    10    11    2
     4    11     1    1
     5     1     2   ar
     6     2     3   ar
     7     3     4   ar
     8     4     5   ar
     9     5     6   ar
    10     5     7    1
    11     7     8    1
    12     8    18    1
    13    18    19    1
    14    19    20    1
    15    20    21    2
    16    21    22    1
    17    22    23    2
    18    23    24    1
    19    24    25    1
    20    25    26    2
    21    26    27    1
    22    27    28    2
    23     8     9    1
    24    13    14   am
    25    14    15    1
    26     6     1   ar
    27    28    20    1
    28     9     4    1
    29    28    23    1
    30    14    16    1
    31    15    17    1
