@<TRIPOS>MOLECULE
*****
 39 42 0 0 0
SMALL
GASTEIGER

@<TRIPOS>ATOM
      1 C          65.3552   90.5033   14.1364 C.ar    1  UNL1        0.0053
      2 C          65.1821   89.2085   14.8734 C.ar    1  UNL1        0.0033
      3 C          64.3006   88.1351   14.3070 C.ar    1  UNL1        0.0382
      4 C          63.5923   88.3566   13.0035 C.ar    1  UNL1        0.1529
      5 C          63.7654   89.6515   12.2664 C.ar    1  UNL1        0.0882
      6 C          64.6469   90.7248   12.8328 C.ar    1  UNL1        0.0181
      7 N          63.0571   89.8729   10.9628 N.am    1  UNL1       -0.2512
      8 C          62.1756   88.7996   10.3964 C.2     1  UNL1        0.2698
      9 O          61.4673   89.0211    9.0929 O.2     1  UNL1       -0.2704
     10 C          62.0025   87.5047   11.1335 C.3     1  UNL1        0.2197
     11 C          61.5258   86.1197   11.4569 C.3     1  UNL1        0.0579
     12 O          62.7108   87.2832   12.4370 O.3     1  UNL1       -0.4686
     13 C          67.5388   91.9075   14.0356 C.ar    1  UNL1        0.0645
     14 N          68.4203   92.9809   14.6020 N.ar    1  UNL1       -0.2183
     15 C          67.9997   93.7236   15.8356 C.ar    1  UNL1        0.2145
     16 N          68.8811   94.7969   16.4020 N.pl3   1  UNL1       -0.3274
     17 N          66.6976   93.3928   16.5027 N.ar    1  UNL1       -0.1995
     18 C          65.8161   92.3193   15.9363 C.ar    1  UNL1        0.1293
     19 N          64.5139   91.9885   16.6034 N.pl3   1  UNL1       -0.3425
     20 C          66.2367   91.5767   14.7028 C.ar    1  UNL1        0.0449
     21 H          69.7358   95.0140   15.9641 H       1  UNL1        0.1452
     22 H          68.6051   95.2843   17.2116 H       1  UNL1        0.1452
     23 H          64.2379   92.4759   17.4131 H       1  UNL1        0.1437
     24 H          63.9354   91.2840   16.2317 H       1  UNL1        0.1437
     25 C          68.3862   91.9222   11.5797 C.3     1  UNL1        0.0067
     26 C          67.9594   91.1649   12.8021 C.3     1  UNL1        0.0460
     27 C          61.1286   87.2452    9.9423 C.ar    1  UNL1        0.0219
     28 C          61.6099   86.3488    8.8401 C.ar    1  UNL1       -0.0005
     29 C          60.7360   86.0893    7.6488 C.ar    1  UNL1       -0.0002
     30 C          59.3809   86.7261    7.5598 C.ar    1  UNL1       -0.0000
     31 C          58.8996   87.6225    8.6620 C.ar    1  UNL1       -0.0002
     32 C          59.7734   87.8820    9.8533 C.ar    1  UNL1       -0.0005
     33 C          63.2302   91.1678   10.2257 C.3     1  UNL1        0.1196
     34 C          64.0342   92.2770   10.8368 C.3     1  UNL1        0.1113
     35 N          64.9990   93.0565    9.9933 N.am    1  UNL1       -0.3026
     36 C          65.9207   94.0517   10.6337 C.2     1  UNL1        0.2230
     37 C          66.8856   94.8313    9.7903 C.3     1  UNL1        0.0946
     38 O          65.8776   94.2673   12.1175 O.2     1  UNL1       -0.2751
     39 H          65.0274   92.9150    9.0194 H       1  UNL1        0.1495
@<TRIPOS>BOND
     1    25    26    1
     2    26    13    1
     3    13    14   ar
     4    14    15   ar
     5    15    16    1
     6    15    17   ar
     7    17    18   ar
     8    18    19    1
     9    18    20   ar
    10    20     1    1
    11     1     2   ar
    12     2     3   ar
    13     3     4   ar
    14     4     5   ar
    15     5     6   ar
    16     5     7    1
    17     7    33    1
    18    33    34    1
    19    34    35    1
    20    35    36   am
    21    36    37    1
    22    36    38    2
    23     7     8   am
    24     8     9    2
    25     8    10    1
    26    10    11    1
    27    10    27    1
    28    27    28   ar
    29    28    29   ar
    30    29    30   ar
    31    30    31   ar
    32    31    32   ar
    33    10    12    1
    34    20    13   ar
    35     6     1   ar
    36    32    27   ar
    37    12     4    1
    38    16    21    1
    39    16    22    1
    40    19    23    1
    41    19    24    1
    42    35    39    1
@<TRIPOS>MOLECULE
*****
 39 42 0 0 0
SMALL
GASTEIGER

@<TRIPOS>ATOM
      1 C          64.0960   89.3170   13.2493 C.ar    1  UNL1        0.0053
      2 C          64.2592   89.2173   14.7370 C.ar    1  UNL1        0.0033
      3 C          64.0223   87.9090   15.4314 C.ar    1  UNL1        0.0382
      4 C          63.6222   86.7005   14.6381 C.ar    1  UNL1        0.1529
      5 C          63.4591   86.8002   13.1504 C.ar    1  UNL1        0.0882
      6 C          63.6960   88.1085   12.4560 C.ar    1  UNL1        0.0181
      7 N          63.0590   85.5917   12.3571 N.am    1  UNL1       -0.2512
      8 C          62.8221   84.2834   13.0515 C.2     1  UNL1        0.2698
      9 O          62.4220   83.0748   12.2582 O.2     1  UNL1       -0.2704
     10 C          62.9853   84.1836   14.5393 C.3     1  UNL1        0.2197
     11 C          63.0128   83.5929   15.9178 C.3     1  UNL1        0.0579
     12 O          63.3853   85.3922   15.3326 O.3     1  UNL1       -0.4686
     13 C          63.5724   90.9600   11.3059 C.ar    1  UNL1        0.0645
     14 N          63.8092   92.2683   10.6114 N.ar    1  UNL1       -0.2183
     15 C          64.8067   93.2419   11.1657 C.ar    1  UNL1        0.2145
     16 N          65.0436   94.5501   10.4712 N.pl3   1  UNL1       -0.3274
     17 N          65.5673   92.9072   12.4145 N.ar    1  UNL1       -0.1995
     18 C          65.3304   91.5989   13.1090 C.ar    1  UNL1        0.1293
     19 N          66.0909   91.2642   14.3578 N.pl3   1  UNL1       -0.3425
     20 C          64.3329   90.6253   12.5547 C.ar    1  UNL1        0.0449
     21 H          64.5444   94.7698    9.6516 H       1  UNL1        0.1452
     22 H          65.6982   95.1891   10.8350 H       1  UNL1        0.1452
     23 H          66.7456   91.9032   14.7217 H       1  UNL1        0.1437
     24 H          65.9355   90.4055   14.8137 H       1  UNL1        0.1437
     25 C          61.1123   90.3189   10.7700 C.3     1  UNL1        0.0067
     26 C          62.5749   89.9864   10.7516 C.3     1  UNL1        0.0460
     27 C          62.5948   82.7700   14.2248 C.ar    1  UNL1        0.0219
     28 C          61.1794   82.3189   14.4326 C.ar    1  UNL1       -0.0005
     29 C          60.7889   80.9052   14.1180 C.ar    1  UNL1       -0.0002
     30 C          61.8137   79.9425   13.5956 C.ar    1  UNL1       -0.0000
     31 C          63.2291   80.3936   13.3878 C.ar    1  UNL1       -0.0002
     32 C          63.6197   81.8073   13.7023 C.ar    1  UNL1       -0.0005
     33 C          62.8958   85.6914   10.8693 C.3     1  UNL1        0.1196
     34 C          61.5242   85.6738   10.2624 C.3     1  UNL1        0.1113
     35 N          60.8993   86.9509    9.7842 N.am    1  UNL1       -0.3026
     36 C          60.2036   86.9940    8.4559 C.2     1  UNL1        0.2230
     37 C          59.5788   88.2710    7.9776 C.3     1  UNL1        0.0946
     38 O          60.1329   85.7600    7.6060 O.2     1  UNL1       -0.2751
     39 H          60.9458   87.7608   10.3420 H       1  UNL1        0.1495
@<TRIPOS>BOND
     1    25    26    1
     2    26    13    1
     3    13    14   ar
     4    14    15   ar
     5    15    16    1
     6    15    17   ar
     7    17    18   ar
     8    18    19    1
     9    18    20   ar
    10    20     1    1
    11     1     2   ar
    12     2     3   ar
    13     3     4   ar
    14     4     5   ar
    15     5     6   ar
    16     5     7    1
    17     7    33    1
    18    33    34    1
    19    34    35    1
    20    35    36   am
    21    36    37    1
    22    36    38    2
    23     7     8   am
    24     8     9    2
    25     8    10    1
    26    10    11    1
    27    10    27    1
    28    27    28   ar
    29    28    29   ar
    30    29    30   ar
    31    30    31   ar
    32    31    32   ar
    33    10    12    1
    34    20    13   ar
    35     6     1   ar
    36    32    27   ar
    37    12     4    1
    38    16    21    1
    39    16    22    1
    40    19    23    1
    41    19    24    1
    42    35    39    1
@<TRIPOS>MOLECULE
*****
 39 42 0 0 0
SMALL
GASTEIGER

@<TRIPOS>ATOM
      1 C          64.2115   89.3780   13.2320 C.ar    1  UNL1        0.0053
      2 C          64.5033   89.2266   14.6955 C.ar    1  UNL1        0.0033
      3 C          64.3013   87.9007   15.3672 C.ar    1  UNL1        0.0382
      4 C          63.8077   86.7262   14.5754 C.ar    1  UNL1        0.1529
      5 C          63.5159   86.8777   13.1119 C.ar    1  UNL1        0.0882
      6 C          63.7179   88.2035   12.4402 C.ar    1  UNL1        0.0181
      7 N          63.0223   85.7032   12.3201 N.am    1  UNL1       -0.2512
      8 C          62.8203   84.3773   12.9918 C.2     1  UNL1        0.2698
      9 O          62.3267   83.2029   12.2000 O.2     1  UNL1       -0.2704
     10 C          63.1121   84.2259   14.4554 C.3     1  UNL1        0.2197
     11 C          63.2489   83.5899   15.8070 C.3     1  UNL1        0.0579
     12 O          63.6058   85.4003   15.2472 O.3     1  UNL1       -0.4686
     13 C          65.2577   91.7561   13.2160 C.ar    1  UNL1        0.0645
     14 N          65.4597   93.0820   12.5443 N.ar    1  UNL1       -0.2183
     15 C          64.8173   93.3557   11.2167 C.ar    1  UNL1        0.2145
     16 N          65.0193   94.6816   10.5450 N.pl3   1  UNL1       -0.3274
     17 N          63.9730   92.3035   10.5608 N.ar    1  UNL1       -0.1995
     18 C          63.7711   90.9776   11.2326 C.ar    1  UNL1        0.1293
     19 N          62.9269   89.9254   10.5768 N.pl3   1  UNL1       -0.3425
     20 C          64.4135   90.7039   12.5602 C.ar    1  UNL1        0.0449
     21 H          65.5734   95.3721   10.9754 H       1  UNL1        0.1452
     22 H          64.5977   94.8612    9.6736 H       1  UNL1        0.1452
     23 H          62.5053   90.1051    9.7055 H       1  UNL1        0.1437
     24 H          62.7943   89.0552   11.0177 H       1  UNL1        0.1437
     25 C          67.3843   91.6296   14.7033 C.3     1  UNL1        0.0067
     26 C          65.9001   91.4823   14.5437 C.3     1  UNL1        0.0460
     27 C          62.6659   82.8306   14.1330 C.ar    1  UNL1        0.0219
     28 C          63.6149   81.8728   13.4757 C.ar    1  UNL1       -0.0005
     29 C          63.1687   80.4774   13.1533 C.ar    1  UNL1       -0.0002
     30 C          61.7737   80.0398   13.4882 C.ar    1  UNL1       -0.0000
     31 C          60.8247   80.9976   14.1455 C.ar    1  UNL1       -0.0002
     32 C          61.2708   82.3930   14.4679 C.ar    1  UNL1       -0.0005
     33 C          62.7305   85.8546   10.8566 C.3     1  UNL1        0.1196
     34 C          61.4052   86.3953   10.4080 C.3     1  UNL1        0.1113
     35 N          60.5063   87.0869   11.3897 N.am    1  UNL1       -0.3026
     36 C          59.9635   88.4502   11.0783 C.2     1  UNL1        0.2230
     37 C          59.0646   89.1418   12.0599 C.3     1  UNL1        0.0946
     38 O          60.3198   89.1218    9.7852 O.2     1  UNL1       -0.2751
     39 H          60.2725   86.6461   12.2384 H       1  UNL1        0.1495
@<TRIPOS>BOND
     1    25    26    1
     2    26    13    1
     3    13    14   ar
     4    14    15   ar
     5    15    16    1
     6    15    17   ar
     7    17    18   ar
     8    18    19    1
     9    18    20   ar
    10    20     1    1
    11     1     2   ar
    12     2     3   ar
    13     3     4   ar
    14     4     5   ar
    15     5     6   ar
    16     5     7    1
    17     7    33    1
    18    33    34    1
    19    34    35    1
    20    35    36   am
    21    36    37    1
    22    36    38    2
    23     7     8   am
    24     8     9    2
    25     8    10    1
    26    10    11    1
    27    10    27    1
    28    27    28   ar
    29    28    29   ar
    30    29    30   ar
    31    30    31   ar
    32    31    32   ar
    33    10    12    1
    34    20    13   ar
    35     6     1   ar
    36    32    27   ar
    37    12     4    1
    38    16    21    1
    39    16    22    1
    40    19    23    1
    41    19    24    1
    42    35    39    1
@<TRIPOS>MOLECULE
*****
 39 42 0 0 0
SMALL
GASTEIGER

@<TRIPOS>ATOM
      1 C          65.3771   90.5545   14.0994 C.ar    1  UNL1        0.0053
      2 C          65.2161   89.2484   14.8192 C.ar    1  UNL1        0.0033
      3 C          64.3238   88.1845   14.2519 C.ar    1  UNL1        0.0382
      4 C          63.5925   88.4267   12.9648 C.ar    1  UNL1        0.1529
      5 C          63.7535   89.7327   12.2450 C.ar    1  UNL1        0.0882
      6 C          64.6458   90.7967   12.8123 C.ar    1  UNL1        0.0181
      7 N          63.0222   89.9749   10.9579 N.am    1  UNL1       -0.2512
      8 C          62.1299   88.9110   10.3906 C.2     1  UNL1        0.2698
      9 O          61.3987   89.1531    9.1036 O.2     1  UNL1       -0.2704
     10 C          61.9689   87.6048   11.1105 C.3     1  UNL1        0.2197
     11 C          61.4970   86.2152   11.4207 C.3     1  UNL1        0.0579
     12 O          62.7002   87.3626   12.3976 O.3     1  UNL1       -0.4686
     13 C          65.9045   92.2951   15.9547 C.ar    1  UNL1        0.0645
     14 N          66.7968   93.3591   16.5219 N.ar    1  UNL1       -0.2183
     15 C          68.0540   93.7465   15.8011 C.ar    1  UNL1        0.2145
     16 N          68.9462   94.8105   16.3684 N.pl3   1  UNL1       -0.3274
     17 N          68.4188   93.0699   14.5131 N.ar    1  UNL1       -0.1995
     18 C          67.5265   92.0059   13.9458 C.ar    1  UNL1        0.1293
     19 N          67.8913   91.3293   12.6578 N.pl3   1  UNL1       -0.3425
     20 C          66.2694   91.6185   14.6666 C.ar    1  UNL1        0.0449
     21 H          68.7067   95.2545   17.2138 H       1  UNL1        0.1452
     22 H          69.7713   95.0647   15.8953 H       1  UNL1        0.1452
     23 H          68.7164   91.5836   12.1847 H       1  UNL1        0.1437
     24 H          67.3057   90.6310   12.2854 H       1  UNL1        0.1437
     25 C          63.6822   92.9657   17.1216 C.3     1  UNL1        0.0067
     26 C          64.6474   91.9077   16.6755 C.3     1  UNL1        0.0460
     27 C          61.0737   87.3644    9.9312 C.ar    1  UNL1        0.0219
     28 C          59.7404   88.0466    9.8502 C.ar    1  UNL1       -0.0005
     29 C          58.8452   87.8062    8.6708 C.ar    1  UNL1       -0.0002
     30 C          59.2833   86.8835    7.5725 C.ar    1  UNL1       -0.0000
     31 C          60.6167   86.2012    7.6534 C.ar    1  UNL1       -0.0002
     32 C          61.5120   86.4416    8.8327 C.ar    1  UNL1       -0.0005
     33 C          63.1832   91.2810   10.2381 C.3     1  UNL1        0.1196
     34 C          64.5258   91.9479   10.1857 C.3     1  UNL1        0.1113
     35 N          64.6518   93.4066   10.5124 N.am    1  UNL1       -0.3026
     36 C          66.0065   94.0108   10.7353 C.2     1  UNL1        0.2230
     37 C          66.1326   95.4694   11.0619 C.3     1  UNL1        0.0946
     38 O          67.2351   93.1565   10.6316 O.2     1  UNL1       -0.2751
     39 H          63.8454   93.9673   10.5804 H       1  UNL1        0.1495
@<TRIPOS>BOND
     1    25    26    1
     2    26    13    1
     3    13    14   ar
     4    14    15   ar
     5    15    16    1
     6    15    17   ar
     7    17    18   ar
     8    18    19    1
     9    18    20   ar
    10    20     1    1
    11     1     2   ar
    12     2     3   ar
    13     3     4   ar
    14     4     5   ar
    15     5     6   ar
    16     5     7    1
    17     7    33    1
    18    33    34    1
    19    34    35    1
    20    35    36   am
    21    36    37    1
    22    36    38    2
    23     7     8   am
    24     8     9    2
    25     8    10    1
    26    10    11    1
    27    10    27    1
    28    27    28   ar
    29    28    29   ar
    30    29    30   ar
    31    30    31   ar
    32    31    32   ar
    33    10    12    1
    34    20    13   ar
    35     6     1   ar
    36    32    27   ar
    37    12     4    1
    38    16    21    1
    39    16    22    1
    40    19    23    1
    41    19    24    1
    42    35    39    1
@<TRIPOS>MOLECULE
*****
 39 42 0 0 0
SMALL
GASTEIGER

@<TRIPOS>ATOM
      1 C          62.4065   93.8230    1.4452 C.ar    1  UNL1        0.0053
      2 C          63.5265   94.7206    1.8808 C.ar    1  UNL1        0.0033
      3 C          64.3847   95.4005    0.8555 C.ar    1  UNL1        0.0382
      4 C          64.1229   95.1827   -0.6053 C.ar    1  UNL1        0.1529
      5 C          63.0029   94.2851   -1.0409 C.ar    1  UNL1        0.0882
      6 C          62.1447   93.6052   -0.0156 C.ar    1  UNL1        0.0181
      7 N          62.7410   94.0673   -2.5017 N.am    1  UNL1       -0.2512
      8 C          63.5992   94.7472   -3.5270 C.2     1  UNL1        0.2698
      9 O          63.3374   94.5294   -4.9878 O.2     1  UNL1       -0.2704
     10 C          64.7193   95.6449   -3.0914 C.3     1  UNL1        0.2197
     11 C          65.8896   96.5796   -3.1730 C.3     1  UNL1        0.0579
     12 O          64.9812   95.8626   -1.6306 O.3     1  UNL1       -0.4686
     13 C          62.1021   92.0066    3.2778 C.ar    1  UNL1        0.0645
     14 N          61.2439   91.3267    4.3030 N.ar    1  UNL1       -0.2183
     15 C          59.8317   91.7832    4.5210 C.ar    1  UNL1        0.2145
     16 N          58.9735   91.1033    5.5463 N.pl3   1  UNL1       -0.3274
     17 N          59.2778   92.9196    3.7137 N.ar    1  UNL1       -0.1995
     18 C          60.1361   93.5996    2.6885 C.ar    1  UNL1        0.1293
     19 N          59.5822   94.7360    1.8812 N.pl3   1  UNL1       -0.3425
     20 C          61.5482   93.1430    2.4705 C.ar    1  UNL1        0.0449
     21 H          59.3371   90.3574    6.0761 H       1  UNL1        0.1452
     22 H          58.0467   91.4029    5.6893 H       1  UNL1        0.1452
     23 H          58.6554   95.0356    2.0242 H       1  UNL1        0.1437
     24 H          60.1455   95.1822    1.2082 H       1  UNL1        0.1437
     25 C          63.8432   90.0870    3.0941 C.3     1  UNL1        0.0067
     26 C          63.5143   91.5501    3.0598 C.3     1  UNL1        0.0460
     27 C          64.8639   95.7517   -4.5806 C.ar    1  UNL1        0.0219
     28 C          65.8452   94.8774   -5.3035 C.ar    1  UNL1       -0.0005
     29 C          65.9898   94.9842   -6.7927 C.ar    1  UNL1       -0.0002
     30 C          65.1532   95.9654   -7.5590 C.ar    1  UNL1       -0.0000
     31 C          64.1720   96.8398   -6.8361 C.ar    1  UNL1       -0.0002
     32 C          64.0273   96.7330   -5.3469 C.ar    1  UNL1       -0.0005
     33 C          61.6210   93.1697   -2.9373 C.3     1  UNL1        0.1196
     34 C          60.3062   93.7592   -3.3540 C.3     1  UNL1        0.1113
     35 N          59.0245   93.0828   -2.9666 N.am    1  UNL1       -0.3026
     36 C          58.3187   93.4801   -1.7041 C.2     1  UNL1        0.2230
     37 C          57.0371   92.8038   -1.3167 C.3     1  UNL1        0.0946
     38 O          58.8945   94.5538   -0.8290 O.2     1  UNL1       -0.2751
     39 H          58.6467   92.3781   -3.5410 H       1  UNL1        0.1495
@<TRIPOS>BOND
     1    25    26    1
     2    26    13    1
     3    13    14   ar
     4    14    15   ar
     5    15    16    1
     6    15    17   ar
     7    17    18   ar
     8    18    19    1
     9    18    20   ar
    10    20     1    1
    11     1     2   ar
    12     2     3   ar
    13     3     4   ar
    14     4     5   ar
    15     5     6   ar
    16     5     7    1
    17     7    33    1
    18    33    34    1
    19    34    35    1
    20    35    36   am
    21    36    37    1
    22    36    38    2
    23     7     8   am
    24     8     9    2
    25     8    10    1
    26    10    11    1
    27    10    27    1
    28    27    28   ar
    29    28    29   ar
    30    29    30   ar
    31    30    31   ar
    32    31    32   ar
    33    10    12    1
    34    20    13   ar
    35     6     1   ar
    36    32    27   ar
    37    12     4    1
    38    16    21    1
    39    16    22    1
    40    19    23    1
    41    19    24    1
    42    35    39    1
@<TRIPOS>MOLECULE
*****
 39 42 0 0 0
SMALL
GASTEIGER

@<TRIPOS>ATOM
      1 C          62.6382   93.7610    1.4631 C.ar    1  UNL1        0.0053
      2 C          63.7402   94.6844    1.8908 C.ar    1  UNL1        0.0033
      3 C          64.5749   95.3842    0.8596 C.ar    1  UNL1        0.0382
      4 C          64.3077   95.1606   -0.5994 C.ar    1  UNL1        0.1529
      5 C          63.2058   94.2372   -1.0271 C.ar    1  UNL1        0.0882
      6 C          62.3711   93.5374    0.0041 C.ar    1  UNL1        0.0181
      7 N          62.9386   94.0136   -2.4861 N.am    1  UNL1       -0.2512
      8 C          63.7734   94.7134   -3.5173 C.2     1  UNL1        0.2698
      9 O          63.5062   94.4898   -4.9763 O.2     1  UNL1       -0.2704
     10 C          64.8754   95.6368   -3.0896 C.3     1  UNL1        0.2197
     11 C          66.0230   96.5986   -3.1793 C.3     1  UNL1        0.0579
     12 O          65.1426   95.8604   -1.6306 O.3     1  UNL1       -0.4686
     13 C          60.3914   93.5027    2.7417 C.ar    1  UNL1        0.0645
     14 N          59.5565   92.8029    3.7729 N.ar    1  UNL1       -0.2183
     15 C          60.1338   91.6615    4.5567 C.ar    1  UNL1        0.2145
     16 N          59.2989   90.9618    5.5878 N.pl3   1  UNL1       -0.3274
     17 N          61.5458   91.2201    4.3092 N.ar    1  UNL1       -0.1995
     18 C          62.3806   91.9199    3.2780 C.ar    1  UNL1        0.1293
     19 N          63.7927   91.4784    3.0306 N.pl3   1  UNL1       -0.3425
     20 C          61.8034   93.0612    2.4943 C.ar    1  UNL1        0.0449
     21 H          58.3722   91.2515    5.7502 H       1  UNL1        0.1452
     22 H          59.6778   90.2127    6.1022 H       1  UNL1        0.1452
     23 H          64.1715   90.7294    3.5450 H       1  UNL1        0.1437
     24 H          64.3406   91.9377    2.3538 H       1  UNL1        0.1437
     25 C          60.2362   96.0511    2.2608 C.3     1  UNL1        0.0067
     26 C          59.8141   94.6440    1.9579 C.3     1  UNL1        0.0460
     27 C          65.0068   95.7472   -4.5797 C.ar    1  UNL1        0.0219
     28 C          65.9686   94.8620   -5.3154 C.ar    1  UNL1       -0.0005
     29 C          66.0999   94.9724   -6.8056 C.ar    1  UNL1       -0.0002
     30 C          65.2695   95.9680   -7.5600 C.ar    1  UNL1       -0.0000
     31 C          64.3077   96.8532   -6.8243 C.ar    1  UNL1       -0.0002
     32 C          64.1763   96.7429   -5.3341 C.ar    1  UNL1       -0.0005
     33 C          61.8367   93.0902   -2.9139 C.3     1  UNL1        0.1196
     34 C          60.4653   93.6340   -3.1849 C.3     1  UNL1        0.1113
     35 N          59.2711   93.0277   -2.5094 N.am    1  UNL1       -0.3026
     36 C          58.4425   93.8518   -1.5690 C.2     1  UNL1        0.2230
     37 C          57.2484   93.2456   -0.8934 C.3     1  UNL1        0.0946
     38 O          58.8083   95.2823   -1.3041 O.2     1  UNL1       -0.2751
     39 H          59.0311   92.0888   -2.6832 H       1  UNL1        0.1495
@<TRIPOS>BOND
     1    25    26    1
     2    26    13    1
     3    13    14   ar
     4    14    15   ar
     5    15    16    1
     6    15    17   ar
     7    17    18   ar
     8    18    19    1
     9    18    20   ar
    10    20     1    1
    11     1     2   ar
    12     2     3   ar
    13     3     4   ar
    14     4     5   ar
    15     5     6   ar
    16     5     7    1
    17     7    33    1
    18    33    34    1
    19    34    35    1
    20    35    36   am
    21    36    37    1
    22    36    38    2
    23     7     8   am
    24     8     9    2
    25     8    10    1
    26    10    11    1
    27    10    27    1
    28    27    28   ar
    29    28    29   ar
    30    29    30   ar
    31    30    31   ar
    32    31    32   ar
    33    10    12    1
    34    20    13   ar
    35     6     1   ar
    36    32    27   ar
    37    12     4    1
    38    16    21    1
    39    16    22    1
    40    19    23    1
    41    19    24    1
    42    35    39    1
@<TRIPOS>MOLECULE
*****
 39 42 0 0 0
SMALL
GASTEIGER

@<TRIPOS>ATOM
      1 C          62.0132   89.3388   11.6934 C.ar    1  UNL1        0.0053
      2 C          61.4731   89.1765   13.0833 C.ar    1  UNL1        0.0033
      3 C          62.2172   89.7565   14.2495 C.ar    1  UNL1        0.0382
      4 C          63.5013   90.4988   14.0257 C.ar    1  UNL1        0.1529
      5 C          64.0414   90.6611   12.6358 C.ar    1  UNL1        0.0882
      6 C          63.2973   90.0811   11.4696 C.ar    1  UNL1        0.0181
      7 N          65.3255   91.4034   12.4120 N.am    1  UNL1       -0.2512
      8 C          66.0695   91.9834   13.5782 C.2     1  UNL1        0.2698
      9 O          67.3536   92.7257   13.3544 O.2     1  UNL1       -0.2704
     10 C          65.5295   91.8211   14.9682 C.3     1  UNL1        0.2197
     11 C          65.4224   91.9296   16.4604 C.3     1  UNL1        0.0579
     12 O          64.2454   91.0788   15.1920 O.3     1  UNL1       -0.4686
     13 C          61.5467   87.3527   10.0847 C.ar    1  UNL1        0.0645
     14 N          60.8027   86.7727    8.9186 N.ar    1  UNL1       -0.2183
     15 C          59.7811   87.5988    8.1947 C.ar    1  UNL1        0.2145
     16 N          59.0371   87.0188    7.0285 N.pl3   1  UNL1       -0.3274
     17 N          59.5035   89.0049    8.6371 N.ar    1  UNL1       -0.1995
     18 C          60.2476   89.5849    9.8034 C.ar    1  UNL1        0.1293
     19 N          59.9700   90.9911   10.2458 N.pl3   1  UNL1       -0.3425
     20 C          61.2691   88.7588   10.5272 C.ar    1  UNL1        0.0449
     21 H          59.2193   86.0959    6.7382 H       1  UNL1        0.1452
     22 H          58.3666   87.5610    6.5535 H       1  UNL1        0.1452
     23 H          59.2995   91.5333    9.7708 H       1  UNL1        0.1437
     24 H          60.4584   91.3718   11.0112 H       1  UNL1        0.1437
     25 C          62.1280   85.4337   11.7369 C.3     1  UNL1        0.0067
     26 C          62.5683   86.5265   10.8086 C.3     1  UNL1        0.0460
     27 C          66.7764   92.6010   15.2626 C.ar    1  UNL1        0.0219
     28 C          66.8412   94.0634   14.9350 C.ar    1  UNL1       -0.0005
     29 C          68.0882   94.8434   15.2295 C.ar    1  UNL1       -0.0002
     30 C          69.2703   94.1611   15.8516 C.ar    1  UNL1       -0.0000
     31 C          69.2054   92.6988   16.1792 C.ar    1  UNL1       -0.0002
     32 C          67.9585   91.9187   15.8847 C.ar    1  UNL1       -0.0005
     33 C          65.8655   91.5657   11.0221 C.3     1  UNL1        0.1196
     34 C          65.6636   92.8564   10.2850 C.3     1  UNL1        0.1113
     35 N          65.4226   94.1257   11.0472 N.am    1  UNL1       -0.3026
     36 C          66.3990   95.2596   10.9436 C.2     1  UNL1        0.2230
     37 C          66.1580   96.5288   11.7058 C.3     1  UNL1        0.0946
     38 O          67.6164   95.1243   10.0777 O.2     1  UNL1       -0.2751
     39 H          64.6236   94.2144   11.6155 H       1  UNL1        0.1495
@<TRIPOS>BOND
     1    25    26    1
     2    26    13    1
     3    13    14   ar
     4    14    15   ar
     5    15    16    1
     6    15    17   ar
     7    17    18   ar
     8    18    19    1
     9    18    20   ar
    10    20     1    1
    11     1     2   ar
    12     2     3   ar
    13     3     4   ar
    14     4     5   ar
    15     5     6   ar
    16     5     7    1
    17     7    33    1
    18    33    34    1
    19    34    35    1
    20    35    36   am
    21    36    37    1
    22    36    38    2
    23     7     8   am
    24     8     9    2
    25     8    10    1
    26    10    11    1
    27    10    27    1
    28    27    28   ar
    29    28    29   ar
    30    29    30   ar
    31    30    31   ar
    32    31    32   ar
    33    10    12    1
    34    20    13   ar
    35     6     1   ar
    36    32    27   ar
    37    12     4    1
    38    16    21    1
    39    16    22    1
    40    19    23    1
    41    19    24    1
    42    35    39    1
@<TRIPOS>MOLECULE
*****
 39 42 0 0 0
SMALL
GASTEIGER

@<TRIPOS>ATOM
      1 C          64.0701   89.2063   13.3412 C.ar    1  UNL1        0.0053
      2 C          64.2934   89.1015   14.8207 C.ar    1  UNL1        0.0033
      3 C          64.0684   87.7951   15.5225 C.ar    1  UNL1        0.0382
      4 C          63.6199   86.5935   14.7447 C.ar    1  UNL1        0.1529
      5 C          63.3965   86.6983   13.2652 C.ar    1  UNL1        0.0882
      6 C          63.6216   88.0047   12.5634 C.ar    1  UNL1        0.0181
      7 N          62.9481   85.4966   12.4874 N.am    1  UNL1       -0.2512
      8 C          62.7230   84.1902   13.1891 C.2     1  UNL1        0.2698
      9 O          62.2745   82.9885   12.4114 O.2     1  UNL1       -0.2704
     10 C          62.9464   84.0853   14.6688 C.3     1  UNL1        0.2197
     11 C          63.0233   83.4916   16.0441 C.3     1  UNL1        0.0579
     12 O          63.3948   85.2870   15.4465 O.3     1  UNL1       -0.4686
     13 C          63.5794   90.8069   11.3543 C.ar    1  UNL1        0.0645
     14 N          63.8045   92.1133   10.6525 N.ar    1  UNL1       -0.2183
     15 C          64.7452   93.1257   11.2357 C.ar    1  UNL1        0.2145
     16 N          64.9703   94.4321   10.5338 N.pl3   1  UNL1       -0.3274
     17 N          65.4610   92.8316   12.5207 N.ar    1  UNL1       -0.1995
     18 C          65.2359   91.5252   13.2225 C.ar    1  UNL1        0.1293
     19 N          65.9516   91.2311   14.5075 N.pl3   1  UNL1       -0.3425
     20 C          64.2951   90.5128   12.6393 C.ar    1  UNL1        0.0449
     21 H          64.5005   94.6251    9.6904 H       1  UNL1        0.1452
     22 H          65.5877   95.0966   10.9166 H       1  UNL1        0.1452
     23 H          66.5690   91.8955   14.8903 H       1  UNL1        0.1437
     24 H          65.8039   90.3736   14.9682 H       1  UNL1        0.1437
     25 C          61.5540   90.2322    9.8319 C.3     1  UNL1        0.0067
     26 C          62.6386   89.7945   10.7711 C.3     1  UNL1        0.0460
     27 C          62.5246   82.6775   14.3686 C.ar    1  UNL1        0.0219
     28 C          61.0744   82.2995   14.4313 C.ar    1  UNL1       -0.0005
     29 C          60.6527   80.8916   14.1311 C.ar    1  UNL1       -0.0002
     30 C          61.6811   79.8618   13.7683 C.ar    1  UNL1       -0.0000
     31 C          63.1313   80.2398   13.7057 C.ar    1  UNL1       -0.0002
     32 C          63.5531   81.6476   14.0058 C.ar    1  UNL1       -0.0005
     33 C          62.7247   85.6014   11.0078 C.3     1  UNL1        0.1196
     34 C          63.5170   84.7429   10.0670 C.3     1  UNL1        0.1113
     35 N          63.0801   83.3354    9.7877 N.am    1  UNL1       -0.3026
     36 C          63.8702   82.1826   10.3326 C.2     1  UNL1        0.2230
     37 C          63.4333   80.7752   10.0532 C.3     1  UNL1        0.0946
     38 O          65.0973   82.4375   11.1569 O.2     1  UNL1       -0.2751
     39 H          62.2747   83.1681    9.2466 H       1  UNL1        0.1495
@<TRIPOS>BOND
     1    25    26    1
     2    26    13    1
     3    13    14   ar
     4    14    15   ar
     5    15    16    1
     6    15    17   ar
     7    17    18   ar
     8    18    19    1
     9    18    20   ar
    10    20     1    1
    11     1     2   ar
    12     2     3   ar
    13     3     4   ar
    14     4     5   ar
    15     5     6   ar
    16     5     7    1
    17     7    33    1
    18    33    34    1
    19    34    35    1
    20    35    36   am
    21    36    37    1
    22    36    38    2
    23     7     8   am
    24     8     9    2
    25     8    10    1
    26    10    11    1
    27    10    27    1
    28    27    28   ar
    29    28    29   ar
    30    29    30   ar
    31    30    31   ar
    32    31    32   ar
    33    10    12    1
    34    20    13   ar
    35     6     1   ar
    36    32    27   ar
    37    12     4    1
    38    16    21    1
    39    16    22    1
    40    19    23    1
    41    19    24    1
    42    35    39    1
@<TRIPOS>MOLECULE
*****
 39 42 0 0 0
SMALL
GASTEIGER

@<TRIPOS>ATOM
      1 C          62.7703   84.0773   11.6318 C.ar    1  UNL1        0.0053
      2 C          62.0011   84.9316   10.6683 C.ar    1  UNL1        0.0033
      3 C          61.9985   86.4233   10.8255 C.ar    1  UNL1        0.0382
      4 C          62.7650   87.0607   11.9463 C.ar    1  UNL1        0.1529
      5 C          63.5342   86.2064   12.9099 C.ar    1  UNL1        0.0882
      6 C          63.5368   84.7147   12.7526 C.ar    1  UNL1        0.0181
      7 N          64.3007   86.8438   14.0307 N.am    1  UNL1       -0.2512
      8 C          64.2980   88.3355   14.1879 C.2     1  UNL1        0.2698
      9 O          65.0645   88.9729   15.3087 O.2     1  UNL1       -0.2704
     10 C          63.5289   89.1899   13.2243 C.3     1  UNL1        0.2197
     11 C          62.9569   90.4131   12.5712 C.3     1  UNL1        0.0579
     12 O          62.7623   88.5525   12.1035 O.3     1  UNL1       -0.4686
     13 C          62.1954   81.7168   12.5525 C.ar    1  UNL1        0.0645
     14 N          62.1981   80.2251   12.3953 N.ar    1  UNL1       -0.2183
     15 C          62.7783   79.6020   11.1603 C.ar    1  UNL1        0.2145
     16 N          62.7809   78.1103   11.0032 N.pl3   1  UNL1       -0.3274
     17 N          63.3558   80.4708   10.0825 N.ar    1  UNL1       -0.1995
     18 C          63.3531   81.9626   10.2397 C.ar    1  UNL1        0.1293
     19 N          63.9307   82.8313    9.1618 N.pl3   1  UNL1       -0.3425
     20 C          62.7730   82.5855   11.4746 C.ar    1  UNL1        0.0449
     21 H          62.4019   77.5402   11.7106 H       1  UNL1        0.1452
     22 H          63.1617   77.7014   10.1926 H       1  UNL1        0.1452
     23 H          64.3114   82.4224    8.3512 H       1  UNL1        0.1437
     24 H          63.9289   83.8104    9.2650 H       1  UNL1        0.1437
     25 C          62.4640   82.5067   15.0130 C.3     1  UNL1        0.0067
     26 C          61.6152   82.3398   13.7875 C.3     1  UNL1        0.0460
     27 C          64.0967   90.2521   14.1183 C.ar    1  UNL1        0.0219
     28 C          65.2934   91.0421   13.6779 C.ar    1  UNL1       -0.0005
     29 C          65.8613   92.1043   14.5719 C.ar    1  UNL1       -0.0002
     30 C          65.2325   92.3766   15.9062 C.ar    1  UNL1       -0.0000
     31 C          64.0359   91.5866   16.3466 C.ar    1  UNL1       -0.0002
     32 C          63.4679   90.5244   15.4527 C.ar    1  UNL1       -0.0005
     33 C          65.0698   85.9895   14.9942 C.3     1  UNL1        0.1196
     34 C          64.3522   85.2740   16.1002 C.3     1  UNL1        0.1113
     35 N          64.1091   85.9671   17.4081 N.am    1  UNL1       -0.3026
     36 C          62.7147   86.3513   17.8055 C.2     1  UNL1        0.2230
     37 C          62.4715   87.0443   19.1133 C.3     1  UNL1        0.0946
     38 O          61.5633   86.0424   16.8949 O.2     1  UNL1       -0.2751
     39 H          64.8648   86.1698   18.0057 H       1  UNL1        0.1495
@<TRIPOS>BOND
     1    25    26    1
     2    26    13    1
     3    13    14   ar
     4    14    15   ar
     5    15    16    1
     6    15    17   ar
     7    17    18   ar
     8    18    19    1
     9    18    20   ar
    10    20     1    1
    11     1     2   ar
    12     2     3   ar
    13     3     4   ar
    14     4     5   ar
    15     5     6   ar
    16     5     7    1
    17     7    33    1
    18    33    34    1
    19    34    35    1
    20    35    36   am
    21    36    37    1
    22    36    38    2
    23     7     8   am
    24     8     9    2
    25     8    10    1
    26    10    11    1
    27    10    27    1
    28    27    28   ar
    29    28    29   ar
    30    29    30   ar
    31    30    31   ar
    32    31    32   ar
    33    10    12    1
    34    20    13   ar
    35     6     1   ar
    36    32    27   ar
    37    12     4    1
    38    16    21    1
    39    16    22    1
    40    19    23    1
    41    19    24    1
    42    35    39    1
