@<TRIPOS>MOLECULE
*****
 26 29 0 0 0
SMALL
GASTEIGER

@<TRIPOS>ATOM
      1 C          62.0777   89.4628   11.5250 C.3     1  UNL1        0.2068
      2 O          62.7822   89.4326   14.0256 O.2     1  UNL1       -0.2739
      3 C          62.9475   89.9723   12.6359 C.2     1  UNL1        0.2419
      4 N          63.9827   91.0214   12.3570 N.am    1  UNL1       -0.2581
      5 C          64.2620   91.6522   11.0250 C.3     1  UNL1        0.1029
      6 C          65.3722   92.6446   11.2059 C.3     1  UNL1        0.0495
      7 C          65.7789   92.6271   12.6496 C.ar    1  UNL1       -0.0059
      8 C          66.8203   93.3951   13.4083 C.ar    1  UNL1        0.0084
      9 C          67.0029   93.1599   14.8784 C.ar    1  UNL1        0.0574
     10 CL         68.0444   93.9279   15.6372 Cl      1  UNL1       -0.0823
     11 C          66.1441   92.1567   15.5898 C.ar    1  UNL1        0.0127
     12 C          65.1027   91.3887   14.8311 C.ar    1  UNL1        0.0154
     13 C          64.9201   91.6240   13.3610 C.ar    1  UNL1        0.0499
     14 C          62.1670   88.0268   11.1009 C.2     1  UNL1        0.3580
     15 N          62.5396   86.9716   12.0997 N.2     1  UNL1       -0.0039
     16 C          62.6289   85.5355   11.6756 C.2     1  UNL1        0.3159
     17 C          62.3457   85.1548   10.2527 C.3     1  UNL1        0.2333
     18 C          61.9731   86.2101    9.2539 C.2     1  UNL1        0.3644
     19 O          61.6899   85.8293    7.8308 O.2     1  UNL1       -0.2422
     20 N          61.8838   87.6461    9.6780 N.am    1  UNL1        0.0289
     21 N          63.0014   84.4803   12.6744 N.pl3   1  UNL1       -0.1888
     22 C          62.8301   83.0299   12.3323 C.3     1  UNL1        0.2343
     23 C          63.2026   81.9747   13.3312 C.3     1  UNL1        0.1929
     24 O          63.7465   82.3698   14.6721 O.3     1  UNL1       -0.3449
     25 C          63.9179   83.8203   15.0142 C.3     1  UNL1        0.1929
     26 C          63.5453   84.8755   14.0154 C.3     1  UNL1        0.2343
@<TRIPOS>BOND
     1     2     3    2
     2     3     1    1
     3     1    14    1
     4    14    15    1
     5    15    16    2
     6    16    21    1
     7    21    22    1
     8    22    23    1
     9    23    24    1
    10    24    25    1
    11    25    26    1
    12    16    17    1
    13    17    18    1
    14    18    19    2
    15    18    20    1
    16     3     4   am
    17     4     5    1
    18     5     6    1
    19     6     7    1
    20     7     8   ar
    21     8     9   ar
    22     9    10    1
    23     9    11   ar
    24    11    12   ar
    25    12    13   ar
    26    20    14    2
    27    13     4    1
    28    26    21    1
    29    13     7   ar
@<TRIPOS>MOLECULE
*****
 26 29 0 0 0
SMALL
GASTEIGER

@<TRIPOS>ATOM
      1 C          63.0980   90.4732   13.7741 C.3     1  UNL1        0.2068
      2 O          63.7680   88.0658   13.0632 O.2     1  UNL1       -0.2739
      3 C          62.9417   89.2998   12.8528 C.2     1  UNL1        0.2419
      4 N          61.9590   89.3605   11.7211 N.am    1  UNL1       -0.2581
      5 C          61.0684   90.5206   11.3880 C.3     1  UNL1        0.1029
      6 C          60.2534   90.1488   10.1849 C.3     1  UNL1        0.0495
      7 C          60.6402   88.7589    9.7744 C.ar    1  UNL1       -0.0059
      8 C          60.1688   87.8740    8.6588 C.ar    1  UNL1        0.0084
      9 C          60.7515   86.5019    8.4926 C.ar    1  UNL1        0.0574
     10 CL         60.2801   85.6169    7.3769 Cl      1  UNL1       -0.0823
     11 C          61.8056   86.0146    9.4421 C.ar    1  UNL1        0.0127
     12 C          62.2771   86.8995   10.5577 C.ar    1  UNL1        0.0154
     13 C          61.6944   88.2717   10.7239 C.ar    1  UNL1        0.0499
     14 C          64.3603   91.2831   13.7495 C.2     1  UNL1        0.3580
     15 N          64.9248   91.7526   12.4414 N.2     1  UNL1       -0.0039
     16 C          66.1870   92.5626   12.4167 C.2     1  UNL1        0.3159
     17 C          66.8848   92.9030   13.7001 C.3     1  UNL1        0.2333
     18 C          66.3203   92.4336   15.0082 C.2     1  UNL1        0.3644
     19 O          67.0182   92.7741   16.2917 O.2     1  UNL1       -0.2422
     20 N          65.0580   91.6236   15.0329 N.am    1  UNL1        0.0289
     21 N          66.7515   93.0320   11.1087 N.pl3   1  UNL1       -0.1888
     22 C          67.7718   92.1997   10.3902 C.3     1  UNL1        0.2343
     23 C          68.3363   92.6691    9.0822 C.3     1  UNL1        0.1929
     24 O          67.8804   93.9709    8.4926 O.3     1  UNL1       -0.3449
     25 C          66.8601   94.8033    9.2111 C.3     1  UNL1        0.1929
     26 C          66.2956   94.3338   10.5192 C.3     1  UNL1        0.2343
@<TRIPOS>BOND
     1     2     3    2
     2     3     1    1
     3     1    14    1
     4    14    15    1
     5    15    16    2
     6    16    21    1
     7    21    22    1
     8    22    23    1
     9    23    24    1
    10    24    25    1
    11    25    26    1
    12    16    17    1
    13    17    18    1
    14    18    19    2
    15    18    20    1
    16     3     4   am
    17     4     5    1
    18     5     6    1
    19     6     7    1
    20     7     8   ar
    21     8     9   ar
    22     9    10    1
    23     9    11   ar
    24    11    12   ar
    25    12    13   ar
    26    20    14    2
    27    13     4    1
    28    26    21    1
    29    13     7   ar
@<TRIPOS>MOLECULE
*****
 26 29 0 0 0
SMALL
GASTEIGER

@<TRIPOS>ATOM
      1 C          61.8186   89.4438   11.2232 C.3     1  UNL1        0.2068
      2 O          63.5489   91.1698   10.3417 O.2     1  UNL1       -0.2739
      3 C          62.9658   90.3774   11.4739 C.2     1  UNL1        0.2419
      4 N          63.5296   90.5184   12.8567 N.am    1  UNL1       -0.2581
      5 C          63.0528   89.7950   14.0812 C.3     1  UNL1        0.1029
      6 C          63.8978   90.2371   15.2391 C.3     1  UNL1        0.0495
      7 C          64.8968   91.2336   14.7301 C.ar    1  UNL1       -0.0059
      8 C          65.9842   92.0052   15.4172 C.ar    1  UNL1        0.0084
      9 C          66.8441   92.9506   14.6319 C.ar    1  UNL1        0.0574
     10 CL         67.9316   93.7223   15.3189 Cl      1  UNL1       -0.0823
     11 C          66.6165   93.1244   13.1595 C.ar    1  UNL1        0.0127
     12 C          65.5291   92.3529   12.4724 C.ar    1  UNL1        0.0154
     13 C          64.6692   91.4075   13.2577 C.ar    1  UNL1        0.0499
     14 C          62.0803   87.9972   10.9252 C.2     1  UNL1        0.3580
     15 N          62.4505   87.0579   12.0346 N.2     1  UNL1       -0.0039
     16 C          62.7121   85.6113   11.7367 C.2     1  UNL1        0.3159
     17 C          62.6037   85.1040   10.3293 C.3     1  UNL1        0.2333
     18 C          62.2335   86.0432    9.2198 C.2     1  UNL1        0.3644
     19 O          62.1251   85.5358    7.8124 O.2     1  UNL1       -0.2422
     20 N          61.9719   87.4899    9.5178 N.am    1  UNL1        0.0289
     21 N          63.0823   84.6720   12.8461 N.pl3   1  UNL1       -0.1888
     22 C          62.7626   83.2111   12.7299 C.3     1  UNL1        0.2343
     23 C          63.1327   82.2719   13.8393 C.3     1  UNL1        0.1929
     24 O          63.8225   82.7936   15.0649 O.3     1  UNL1       -0.3449
     25 C          64.1422   84.2546   15.1811 C.3     1  UNL1        0.1929
     26 C          63.7720   85.1938   14.0717 C.3     1  UNL1        0.2343
@<TRIPOS>BOND
     1     2     3    2
     2     3     1    1
     3     1    14    1
     4    14    15    1
     5    15    16    2
     6    16    21    1
     7    21    22    1
     8    22    23    1
     9    23    24    1
    10    24    25    1
    11    25    26    1
    12    16    17    1
    13    17    18    1
    14    18    19    2
    15    18    20    1
    16     3     4   am
    17     4     5    1
    18     5     6    1
    19     6     7    1
    20     7     8   ar
    21     8     9   ar
    22     9    10    1
    23     9    11   ar
    24    11    12   ar
    25    12    13   ar
    26    20    14    2
    27    13     4    1
    28    26    21    1
    29    13     7   ar
@<TRIPOS>MOLECULE
*****
 26 29 0 0 0
SMALL
GASTEIGER

@<TRIPOS>ATOM
      1 C          63.3450   90.3728   12.8498 C.3     1  UNL1        0.2068
      2 O          64.3543   88.5732   14.4286 O.2     1  UNL1       -0.2739
      3 C          63.5815   88.9321   13.1942 C.2     1  UNL1        0.2419
      4 N          63.0451   87.8504   12.3041 N.am    1  UNL1       -0.2581
      5 C          62.2583   88.0552   11.0435 C.3     1  UNL1        0.1029
      6 C          61.9283   86.7054   10.4787 C.3     1  UNL1        0.0495
      7 C          62.5110   85.6663   11.3902 C.ar    1  UNL1       -0.0059
      8 C          62.5023   84.1673   11.3387 C.ar    1  UNL1        0.0084
      9 C          63.1838   83.3759   12.4153 C.ar    1  UNL1        0.0574
     10 CL         63.1751   81.8767   12.3638 Cl      1  UNL1       -0.0823
     11 C          63.8740   84.0836   13.5435 C.ar    1  UNL1        0.0127
     12 C          63.8827   85.5826   13.5950 C.ar    1  UNL1        0.0154
     13 C          63.2012   86.3740   12.5184 C.ar    1  UNL1        0.0499
     14 C          64.4212   91.3887   13.0942 C.2     1  UNL1        0.3580
     15 N          64.9495   92.2104   11.9558 N.2     1  UNL1       -0.0039
     16 C          66.0257   93.2263   12.2002 C.2     1  UNL1        0.3159
     17 C          66.5736   93.4205   13.5829 C.3     1  UNL1        0.2333
     18 C          66.0453   92.5989   14.7213 C.2     1  UNL1        0.3644
     19 O          66.5933   92.7932   16.1041 O.2     1  UNL1       -0.2422
     20 N          64.9691   91.5830   14.4769 N.am    1  UNL1        0.0289
     21 N          66.5539   94.0479   11.0618 N.pl3   1  UNL1       -0.1888
     22 C          67.2706   93.3814    9.9251 C.3     1  UNL1        0.2343
     23 C          67.7989   94.2030    8.7868 C.3     1  UNL1        0.1929
     24 O          67.6104   95.6911    8.7851 O.3     1  UNL1       -0.3449
     25 C          66.8936   96.3577    9.9219 C.3     1  UNL1        0.1929
     26 C          66.3654   95.5360   11.0602 C.3     1  UNL1        0.2343
@<TRIPOS>BOND
     1     2     3    2
     2     3     1    1
     3     1    14    1
     4    14    15    1
     5    15    16    2
     6    16    21    1
     7    21    22    1
     8    22    23    1
     9    23    24    1
    10    24    25    1
    11    25    26    1
    12    16    17    1
    13    17    18    1
    14    18    19    2
    15    18    20    1
    16     3     4   am
    17     4     5    1
    18     5     6    1
    19     6     7    1
    20     7     8   ar
    21     8     9   ar
    22     9    10    1
    23     9    11   ar
    24    11    12   ar
    25    12    13   ar
    26    20    14    2
    27    13     4    1
    28    26    21    1
    29    13     7   ar
@<TRIPOS>MOLECULE
*****
 26 29 0 0 0
SMALL
GASTEIGER

@<TRIPOS>ATOM
      1 C          62.5289   90.2908   11.7332 C.3     1  UNL1        0.2068
      2 O          64.5793   91.6668   10.9256 O.2     1  UNL1       -0.2739
      3 C          63.7786   91.0616   12.0402 C.2     1  UNL1        0.2419
      4 N          64.2274   91.2272   13.4619 N.am    1  UNL1       -0.2581
      5 C          63.5335   90.6817   14.6747 C.3     1  UNL1        0.1029
      6 C          64.3263   91.0847   15.8827 C.3     1  UNL1        0.0495
      7 C          65.5101   91.8791   15.4165 C.ar    1  UNL1       -0.0059
      8 C          66.6358   92.5337   16.1610 C.ar    1  UNL1        0.0084
      9 C          67.7004   93.2764   15.4093 C.ar    1  UNL1        0.0574
     10 CL         68.8261   93.9310   16.1538 Cl      1  UNL1       -0.0823
     11 C          67.6393   93.3645   13.9132 C.ar    1  UNL1        0.0127
     12 C          66.5136   92.7099   13.1686 C.ar    1  UNL1        0.0154
     13 C          65.4490   91.9672   13.9203 C.ar    1  UNL1        0.0499
     14 C          62.5862   88.7999   11.5785 C.2     1  UNL1        0.3580
     15 N          62.1639   88.1630   10.2878 N.2     1  UNL1       -0.0039
     16 C          62.2212   86.6721   10.1332 C.2     1  UNL1        0.3159
     17 C          62.7010   85.8182   11.2692 C.3     1  UNL1        0.2333
     18 C          63.1233   86.4551   12.5599 C.2     1  UNL1        0.3644
     19 O          63.6031   85.6011   13.6960 O.2     1  UNL1       -0.2422
     20 N          63.0660   87.9460   12.7146 N.am    1  UNL1        0.0289
     21 N          61.7988   86.0351    8.8425 N.pl3   1  UNL1       -0.1888
     22 C          62.7898   85.2529    8.0326 C.3     1  UNL1        0.2343
     23 C          62.3675   84.6160    6.7419 C.3     1  UNL1        0.1929
     24 O          60.9540   84.7613    6.2611 O.3     1  UNL1       -0.3449
     25 C          59.9629   85.5435    7.0711 C.3     1  UNL1        0.1929
     26 C          60.3853   86.1805    8.3618 C.3     1  UNL1        0.2343
@<TRIPOS>BOND
     1     2     3    2
     2     3     1    1
     3     1    14    1
     4    14    15    1
     5    15    16    2
     6    16    21    1
     7    21    22    1
     8    22    23    1
     9    23    24    1
    10    24    25    1
    11    25    26    1
    12    16    17    1
    13    17    18    1
    14    18    19    2
    15    18    20    1
    16     3     4   am
    17     4     5    1
    18     5     6    1
    19     6     7    1
    20     7     8   ar
    21     8     9   ar
    22     9    10    1
    23     9    11   ar
    24    11    12   ar
    25    12    13   ar
    26    20    14    2
    27    13     4    1
    28    26    21    1
    29    13     7   ar
@<TRIPOS>MOLECULE
*****
 26 29 0 0 0
SMALL
GASTEIGER

@<TRIPOS>ATOM
      1 C          62.6856   89.8936   12.3009 C.3     1  UNL1        0.2068
      2 O          63.3133   90.0259   14.8185 O.2     1  UNL1       -0.2739
      3 C          63.5556   90.4356   13.3961 C.2     1  UNL1        0.2419
      4 N          64.6678   91.3874   13.0688 N.am    1  UNL1       -0.2581
      5 C          65.0283   91.8850   11.7005 C.3     1  UNL1        0.1029
      6 C          66.1981   92.8138   11.8384 C.3     1  UNL1        0.0495
      7 C          66.5605   92.8902   13.2919 C.ar    1  UNL1       -0.0059
      8 C          67.6295   93.6486   14.0213 C.ar    1  UNL1        0.0084
      9 C          67.7527   93.5254   15.5111 C.ar    1  UNL1        0.0574
     10 CL         68.8218   94.2838   16.2405 Cl      1  UNL1       -0.0823
     11 C          66.8070   92.6438   16.2715 C.ar    1  UNL1        0.0127
     12 C          65.7379   91.8854   15.5422 C.ar    1  UNL1        0.0154
     13 C          65.6147   92.0086   14.0524 C.ar    1  UNL1        0.0499
     14 C          62.7155   88.4298   11.9744 C.2     1  UNL1        0.3580
     15 N          62.2006   87.9459   10.6513 N.2     1  UNL1       -0.0039
     16 C          62.2305   86.4822   10.3247 C.2     1  UNL1        0.3159
     17 C          62.7753   85.5025   11.3213 C.3     1  UNL1        0.2333
     18 C          63.2903   85.9864   12.6444 C.2     1  UNL1        0.3644
     19 O          63.8351   85.0066   13.6411 O.2     1  UNL1       -0.2422
     20 N          63.2603   87.4501   12.9710 N.am    1  UNL1        0.0289
     21 N          61.7156   85.9982    9.0016 N.pl3   1  UNL1       -0.1888
     22 C          60.3006   86.2871    8.5964 C.3     1  UNL1        0.2343
     23 C          59.7856   85.8032    7.2733 C.3     1  UNL1        0.1929
     24 O          60.6857   85.0304    6.3554 O.3     1  UNL1       -0.3449
     25 C          62.1009   84.7414    6.7606 C.3     1  UNL1        0.1929
     26 C          62.6158   85.2254    8.0838 C.3     1  UNL1        0.2343
@<TRIPOS>BOND
     1     2     3    2
     2     3     1    1
     3     1    14    1
     4    14    15    1
     5    15    16    2
     6    16    21    1
     7    21    22    1
     8    22    23    1
     9    23    24    1
    10    24    25    1
    11    25    26    1
    12    16    17    1
    13    17    18    1
    14    18    19    2
    15    18    20    1
    16     3     4   am
    17     4     5    1
    18     5     6    1
    19     6     7    1
    20     7     8   ar
    21     8     9   ar
    22     9    10    1
    23     9    11   ar
    24    11    12   ar
    25    12    13   ar
    26    20    14    2
    27    13     4    1
    28    26    21    1
    29    13     7   ar
@<TRIPOS>MOLECULE
*****
 26 29 0 0 0
SMALL
GASTEIGER

@<TRIPOS>ATOM
      1 C          62.2952   90.2862   11.7840 C.3     1  UNL1        0.2068
      2 O          61.7744   88.2149   10.3048 O.2     1  UNL1       -0.2739
      3 C          62.3807   88.8083   11.5417 C.2     1  UNL1        0.2419
      4 N          63.0724   87.9240   12.5365 N.am    1  UNL1       -0.2581
      5 C          63.7222   88.3717   13.8121 C.3     1  UNL1        0.1029
      6 C          64.2871   87.1611   14.4942 C.3     1  UNL1        0.0495
      7 C          63.9864   85.9652   13.6401 C.ar    1  UNL1       -0.0059
      8 C          64.2992   84.5078   13.8079 C.ar    1  UNL1        0.0084
      9 C          63.8613   83.5220   12.7657 C.ar    1  UNL1        0.0574
     10 CL         64.1741   82.0645   12.9334 Cl      1  UNL1       -0.0823
     11 C          63.1105   83.9935   11.5557 C.ar    1  UNL1        0.0127
     12 C          62.7977   85.4508   11.3880 C.ar    1  UNL1        0.0154
     13 C          63.2356   86.4367   12.4302 C.ar    1  UNL1        0.0499
     14 C          63.5031   91.0398   12.2565 C.2     1  UNL1        0.3580
     15 N          64.4452   91.6474   11.2599 N.2     1  UNL1       -0.0039
     16 C          65.6531   92.4010   11.7324 C.2     1  UNL1        0.3159
     17 C          65.9187   92.5470   13.2015 C.3     1  UNL1        0.2333
     18 C          64.9765   91.9394   14.1980 C.2     1  UNL1        0.3644
     19 O          65.2422   92.0854   15.6671 O.2     1  UNL1       -0.2422
     20 N          63.7687   91.1858   13.7255 N.am    1  UNL1        0.0289
     21 N          66.5953   93.0086   10.7359 N.pl3   1  UNL1       -0.1888
     22 C          67.6952   92.1798   10.1416 C.3     1  UNL1        0.2343
     23 C          68.6374   92.7874    9.1451 C.3     1  UNL1        0.1929
     24 O          68.4796   94.2238    8.7428 O.3     1  UNL1       -0.3449
     25 C          67.3796   95.0527    9.3371 C.3     1  UNL1        0.1929
     26 C          66.4374   94.4451   10.3336 C.3     1  UNL1        0.2343
@<TRIPOS>BOND
     1     2     3    2
     2     3     1    1
     3     1    14    1
     4    14    15    1
     5    15    16    2
     6    16    21    1
     7    21    22    1
     8    22    23    1
     9    23    24    1
    10    24    25    1
    11    25    26    1
    12    16    17    1
    13    17    18    1
    14    18    19    2
    15    18    20    1
    16     3     4   am
    17     4     5    1
    18     5     6    1
    19     6     7    1
    20     7     8   ar
    21     8     9   ar
    22     9    10    1
    23     9    11   ar
    24    11    12   ar
    25    12    13   ar
    26    20    14    2
    27    13     4    1
    28    26    21    1
    29    13     7   ar
@<TRIPOS>MOLECULE
*****
 26 29 0 0 0
SMALL
GASTEIGER

@<TRIPOS>ATOM
      1 C          62.8509   91.2042   11.2457 C.3     1  UNL1        0.2068
      2 O          63.0396   91.0092   13.8296 O.2     1  UNL1       -0.2739
      3 C          63.6586   91.3358   12.5029 C.2     1  UNL1        0.2419
      4 N          65.0852   91.7939   12.4333 N.am    1  UNL1       -0.2581
      5 C          65.8356   92.1543   11.1855 C.3     1  UNL1        0.1029
      6 C          67.2261   92.5552   11.5804 C.3     1  UNL1        0.0495
      7 C          67.3350   92.4426   13.0722 C.ar    1  UNL1       -0.0059
      8 C          68.4681   92.7077   14.0186 C.ar    1  UNL1        0.0084
      9 C          68.2780   92.5023   15.4923 C.ar    1  UNL1        0.0574
     10 CL         69.4111   92.7674   16.4388 Cl      1  UNL1       -0.0823
     11 C          66.9549   92.0318   16.0194 C.ar    1  UNL1        0.0127
     12 C          65.8218   91.7667   15.0730 C.ar    1  UNL1        0.0154
     13 C          66.0119   91.9721   13.5993 C.ar    1  UNL1        0.0499
     14 C          61.8706   90.0785   11.0985 C.2     1  UNL1        0.3580
     15 N          62.1177   88.9959   10.0900 N.2     1  UNL1       -0.0039
     16 C          61.1374   87.8701    9.9428 C.2     1  UNL1        0.3159
     17 C          59.9100   87.8270   10.8039 C.3     1  UNL1        0.2333
     18 C          59.6629   88.9096   11.8123 C.2     1  UNL1        0.3644
     19 O          58.4354   88.8665   12.6735 O.2     1  UNL1       -0.2422
     20 N          60.6432   90.0354   11.9596 N.am    1  UNL1        0.0289
     21 N          61.3845   86.7875    8.9344 N.pl3   1  UNL1       -0.1888
     22 C          62.7082   86.0827    8.8998 C.3     1  UNL1        0.2343
     23 C          62.9553   85.0001    7.8914 C.3     1  UNL1        0.1929
     24 O          61.8788   84.6223    6.9175 O.3     1  UNL1       -0.3449
     25 C          60.5551   85.3272    6.9521 C.3     1  UNL1        0.1929
     26 C          60.3079   86.4098    7.9605 C.3     1  UNL1        0.2343
@<TRIPOS>BOND
     1     2     3    2
     2     3     1    1
     3     1    14    1
     4    14    15    1
     5    15    16    2
     6    16    21    1
     7    21    22    1
     8    22    23    1
     9    23    24    1
    10    24    25    1
    11    25    26    1
    12    16    17    1
    13    17    18    1
    14    18    19    2
    15    18    20    1
    16     3     4   am
    17     4     5    1
    18     5     6    1
    19     6     7    1
    20     7     8   ar
    21     8     9   ar
    22     9    10    1
    23     9    11   ar
    24    11    12   ar
    25    12    13   ar
    26    20    14    2
    27    13     4    1
    28    26    21    1
    29    13     7   ar
