@<TRIPOS>MOLECULE
*****
 18 20 0 0 0
SMALL
GASTEIGER

@<TRIPOS>ATOM
      1 C          63.1474   89.7156   12.0752 C.3     1  UNL1        0.0896
      2 N          62.2960   89.0657   11.0251 N.3     1  UNL1       -0.2712
      3 C          61.2713   89.7523   10.1715 C.3     1  UNL1        0.0725
      4 C          60.6618   88.7261    9.2630 C.3     1  UNL1        0.0210
      5 C          59.6005   88.8237    8.2076 C.3     1  UNL1        0.0017
      6 C          59.1871   87.6005    7.4442 C.3     1  UNL1        0.0001
      7 C          59.8351   86.2796    7.7363 C.3     1  UNL1        0.0004
      8 C          60.8964   86.1819    8.7918 C.3     1  UNL1        0.0054
      9 C          61.3097   87.4052    9.5551 C.3     1  UNL1        0.0349
     10 C          62.3197   87.6151   10.6441 C.3     1  UNL1        0.0762
     11 C          62.0432   86.1594    9.9554 C.ar    1  UNL1       -0.0206
     12 C          62.8908   85.4333    8.9532 C.ar    1  UNL1       -0.0033
     13 C          63.6242   84.1876    9.3535 C.ar    1  UNL1        0.0119
     14 C          63.5100   83.6680   10.7559 C.ar    1  UNL1        0.0682
     15 CL         64.2434   82.4222   11.1562 Cl      1  UNL1       -0.0814
     16 C          62.6624   84.3939   11.7581 C.ar    1  UNL1        0.0679
     17 CL         62.5481   83.8742   13.1606 Cl      1  UNL1       -0.0814
     18 C          61.9290   85.6397   11.3578 C.ar    1  UNL1        0.0080
@<TRIPOS>BOND
     1     1     2    1
     2     2     3    1
     3     4     3    1
     4     4     5    1
     5     5     6    1
     6     6     7    1
     7     7     8    1
     8     8     9    1
     9     9    11    1
    10    11    12   ar
    11    12    13   ar
    12    13    14   ar
    13    14    15    1
    14    14    16   ar
    15    16    17    1
    16    16    18   ar
    17     9    10    1
    18    10     2    1
    19     9     4    1
    20    18    11   ar
@<TRIPOS>MOLECULE
*****
 18 20 0 0 0
SMALL
GASTEIGER

@<TRIPOS>ATOM
      1 C          67.2406   93.0030   15.4774 C.3     1  UNL1        0.0896
      2 N          66.3105   92.4741   14.4261 N.3     1  UNL1       -0.2712
      3 C          66.1871   92.9839   13.0208 C.3     1  UNL1        0.0725
      4 C          65.1408   92.1674   12.3217 C.3     1  UNL1        0.0210
      5 C          64.5970   92.2166   10.9246 C.3     1  UNL1        0.0017
      6 C          63.5299   91.2513   10.5009 C.3     1  UNL1        0.0001
      7 C          63.0067   90.2369   11.4741 C.3     1  UNL1        0.0004
      8 C          63.5506   90.1877   12.8711 C.3     1  UNL1        0.0054
      9 C          64.6176   91.1530   13.2949 C.3     1  UNL1        0.0349
     10 C          65.3405   91.3425   14.5955 C.3     1  UNL1        0.0762
     11 C          64.1945   90.1994   14.3727 C.ar    1  UNL1       -0.0206
     12 C          63.5493   90.7192   15.6231 C.ar    1  UNL1       -0.0033
     13 C          63.1262   89.7656   16.7009 C.ar    1  UNL1        0.0119
     14 C          63.3483   88.2922   16.5283 C.ar    1  UNL1        0.0682
     15 CL         62.9252   87.3386   17.6061 Cl      1  UNL1       -0.0814
     16 C          63.9935   87.7724   15.2780 C.ar    1  UNL1        0.0679
     17 CL         64.2157   86.2990   15.1053 Cl      1  UNL1       -0.0814
     18 C          64.4166   88.7260   14.2002 C.ar    1  UNL1        0.0080
@<TRIPOS>BOND
     1     1     2    1
     2     2     3    1
     3     4     3    1
     4     4     5    1
     5     5     6    1
     6     6     7    1
     7     7     8    1
     8     8     9    1
     9     9    11    1
    10    11    12   ar
    11    12    13   ar
    12    13    14   ar
    13    14    15    1
    14    14    16   ar
    15    16    17    1
    16    16    18   ar
    17     9    10    1
    18    10     2    1
    19     9     4    1
    20    18    11   ar
@<TRIPOS>MOLECULE
*****
 18 20 0 0 0
SMALL
GASTEIGER

@<TRIPOS>ATOM
      1 C          61.3291   89.9119   11.1987 C.3     1  UNL1        0.0896
      2 N          62.5892   90.3907   11.8566 N.3     1  UNL1       -0.2712
      3 C          63.5252   91.4312   11.3169 C.3     1  UNL1        0.0725
      4 C          64.6491   91.5967   12.2965 C.3     1  UNL1        0.0210
      5 C          65.8610   92.4804   12.2937 C.3     1  UNL1        0.0017
      6 C          66.8315   92.4260   13.4361 C.3     1  UNL1        0.0001
      7 C          66.5901   91.4878   14.5813 C.3     1  UNL1        0.0004
      8 C          65.3781   90.6041   14.5841 C.3     1  UNL1        0.0054
      9 C          64.4076   90.6585   13.4417 C.3     1  UNL1        0.0349
     10 C          63.1346   89.9132   13.1699 C.3     1  UNL1        0.0762
     11 C          64.0358   89.6754   14.5119 C.ar    1  UNL1       -0.0206
     12 C          63.3502   90.1483   15.7594 C.ar    1  UNL1       -0.0033
     13 C          62.9783   89.1653   16.8295 C.ar    1  UNL1        0.0119
     14 C          63.2921   87.7092   16.6522 C.ar    1  UNL1        0.0682
     15 CL         62.9202   86.7261   17.7224 Cl      1  UNL1       -0.0814
     16 C          63.9776   87.2362   15.4048 C.ar    1  UNL1        0.0679
     17 CL         64.2914   85.7801   15.2274 Cl      1  UNL1       -0.0814
     18 C          64.3495   88.2193   14.3346 C.ar    1  UNL1        0.0080
@<TRIPOS>BOND
     1     1     2    1
     2     2     3    1
     3     4     3    1
     4     4     5    1
     5     5     6    1
     6     6     7    1
     7     7     8    1
     8     8     9    1
     9     9    11    1
    10    11    12   ar
    11    12    13   ar
    12    13    14   ar
    13    14    15    1
    14    14    16   ar
    15    16    17    1
    16    16    18   ar
    17     9    10    1
    18    10     2    1
    19     9     4    1
    20    18    11   ar
@<TRIPOS>MOLECULE
*****
 18 20 0 0 0
SMALL
GASTEIGER

@<TRIPOS>ATOM
      1 C          58.9859   86.7431    7.4407 C.3     1  UNL1        0.0896
      2 N          59.8498   87.3954    8.4790 N.3     1  UNL1       -0.2712
      3 C          59.7744   88.8286    8.9151 C.3     1  UNL1        0.0725
      4 C          60.8189   89.0480    9.9692 C.3     1  UNL1        0.0210
      5 C          61.2066   90.2617   10.7607 C.3     1  UNL1        0.0017
      6 C          62.3153   90.1777   11.7675 C.3     1  UNL1        0.0001
      7 C          63.0362   88.8801   11.9828 C.3     1  UNL1        0.0004
      8 C          62.6485   87.6664   11.1913 C.3     1  UNL1        0.0054
      9 C          61.5399   87.7503   10.1844 C.3     1  UNL1        0.0349
     10 C          60.9409   86.7290    9.2634 C.3     1  UNL1        0.0762
     11 C          62.1666   86.3916   10.2900 C.ar    1  UNL1       -0.0206
     12 C          62.8475   85.7852    9.0990 C.ar    1  UNL1       -0.0033
     13 C          63.4742   84.4265    9.2045 C.ar    1  UNL1        0.0119
     14 C          63.4200   83.6742   10.5011 C.ar    1  UNL1        0.0682
     15 CL         64.0467   82.3155   10.6066 Cl      1  UNL1       -0.0814
     16 C          62.7391   84.2806   11.6921 C.ar    1  UNL1        0.0679
     17 CL         62.6848   83.5283   12.9888 Cl      1  UNL1       -0.0814
     18 C          62.1123   85.6393   11.5866 C.ar    1  UNL1        0.0080
@<TRIPOS>BOND
     1     1     2    1
     2     2     3    1
     3     4     3    1
     4     4     5    1
     5     5     6    1
     6     6     7    1
     7     7     8    1
     8     8     9    1
     9     9    11    1
    10    11    12   ar
    11    12    13   ar
    12    13    14   ar
    13    14    15    1
    14    14    16   ar
    15    16    17    1
    16    16    18   ar
    17     9    10    1
    18    10     2    1
    19     9     4    1
    20    18    11   ar
@<TRIPOS>MOLECULE
*****
 18 20 0 0 0
SMALL
GASTEIGER

@<TRIPOS>ATOM
      1 C          61.0398   86.5852    9.2467 C.3     1  UNL1        0.0896
      2 N          61.8482   86.6147   10.5098 N.3     1  UNL1       -0.2712
      3 C          62.3191   87.8452   11.2268 C.3     1  UNL1        0.0725
      4 C          63.0896   87.4099   12.4379 C.3     1  UNL1        0.0210
      5 C          63.7870   88.1852   13.5160 C.3     1  UNL1        0.0017
      6 C          64.4897   87.4609   14.6257 C.3     1  UNL1        0.0001
      7 C          64.4950   85.9613   14.6573 C.3     1  UNL1        0.0004
      8 C          63.7975   85.1859   13.5792 C.3     1  UNL1        0.0054
      9 C          63.0948   85.9102   12.4695 C.3     1  UNL1        0.0349
     10 C          62.3276   85.4188   11.2779 C.3     1  UNL1        0.0762
     11 C          63.0155   84.4157   12.3689 C.ar    1  UNL1       -0.0206
     12 C          63.6598   83.7064   11.2148 C.ar    1  UNL1       -0.0033
     13 C          63.5805   82.2120   11.1142 C.ar    1  UNL1        0.0119
     14 C          62.8570   81.4267   12.1677 C.ar    1  UNL1        0.0682
     15 CL         62.7777   79.9322   12.0671 Cl      1  UNL1       -0.0814
     16 C          62.2128   82.1358   13.3218 C.ar    1  UNL1        0.0679
     17 CL         61.4893   81.3505   14.3754 Cl      1  UNL1       -0.0814
     18 C          62.2921   83.6304   13.4224 C.ar    1  UNL1        0.0080
@<TRIPOS>BOND
     1     1     2    1
     2     2     3    1
     3     4     3    1
     4     4     5    1
     5     5     6    1
     6     6     7    1
     7     7     8    1
     8     8     9    1
     9     9    11    1
    10    11    12   ar
    11    12    13   ar
    12    13    14   ar
    13    14    15    1
    14    14    16   ar
    15    16    17    1
    16    16    18   ar
    17     9    10    1
    18    10     2    1
    19     9     4    1
    20    18    11   ar
@<TRIPOS>MOLECULE
*****
 18 20 0 0 0
SMALL
GASTEIGER

@<TRIPOS>ATOM
      1 C          64.2670   88.4102   14.1172 C.3     1  UNL1        0.0896
      2 N          63.4511   88.0469   12.9120 N.3     1  UNL1       -0.2712
      3 C          62.7839   89.0105   11.9759 C.3     1  UNL1        0.0725
      4 C          62.0797   88.2155   10.9166 C.3     1  UNL1        0.0210
      5 C          61.2572   88.6284    9.7322 C.3     1  UNL1        0.0017
      6 C          60.6667   87.5863    8.8292 C.3     1  UNL1        0.0001
      7 C          60.8986   86.1314    9.1107 C.3     1  UNL1        0.0004
      8 C          61.7211   85.7184   10.2952 C.3     1  UNL1        0.0054
      9 C          62.3117   86.7605   11.1981 C.3     1  UNL1        0.0349
     10 C          63.1593   86.6564   12.4313 C.3     1  UNL1        0.0762
     11 C          62.6277   85.3514   11.6040 C.ar    1  UNL1       -0.0206
     12 C          63.2482   84.4078   10.6169 C.ar    1  UNL1       -0.0033
     13 C          63.5642   82.9988   11.0228 C.ar    1  UNL1        0.0119
     14 C          63.2596   82.5334   12.4159 C.ar    1  UNL1        0.0682
     15 CL         63.5756   81.1244   12.8218 Cl      1  UNL1       -0.0814
     16 C          62.6391   83.4770   13.4030 C.ar    1  UNL1        0.0679
     17 CL         62.3345   83.0116   14.7962 Cl      1  UNL1       -0.0814
     18 C          62.3231   84.8860   12.9971 C.ar    1  UNL1        0.0080
@<TRIPOS>BOND
     1     1     2    1
     2     2     3    1
     3     4     3    1
     4     4     5    1
     5     5     6    1
     6     6     7    1
     7     7     8    1
     8     8     9    1
     9     9    11    1
    10    11    12   ar
    11    12    13   ar
    12    13    14   ar
    13    14    15    1
    14    14    16   ar
    15    16    17    1
    16    16    18   ar
    17     9    10    1
    18    10     2    1
    19     9     4    1
    20    18    11   ar
@<TRIPOS>MOLECULE
*****
 18 20 0 0 0
SMALL
GASTEIGER

@<TRIPOS>ATOM
      1 C          64.5748   87.4093   14.9329 C.3     1  UNL1        0.0896
      2 N          63.8121   87.2585   13.6501 N.3     1  UNL1       -0.2712
      3 C          63.3934   88.3725   12.7370 C.3     1  UNL1        0.0725
      4 C          62.6568   87.7696   11.5777 C.3     1  UNL1        0.0210
      5 C          62.0146   88.3822   10.3685 C.3     1  UNL1        0.0017
      6 C          61.3359   87.5083    9.3559 C.3     1  UNL1        0.0001
      7 C          61.2993   86.0217    9.5525 C.3     1  UNL1        0.0004
      8 C          61.9415   85.4090   10.7617 C.3     1  UNL1        0.0054
      9 C          62.6202   86.2830   11.7743 C.3     1  UNL1        0.0349
     10 C          63.3342   85.9671   13.0551 C.3     1  UNL1        0.0762
     11 C          62.6636   84.8203   12.1039 C.ar    1  UNL1       -0.0206
     12 C          62.2764   84.3484   13.4741 C.ar    1  UNL1       -0.0033
     13 C          62.3197   82.8858   13.8036 C.ar    1  UNL1        0.0119
     14 C          62.7503   81.8949   12.7631 C.ar    1  UNL1        0.0682
     15 CL         62.7936   80.4322   13.0927 Cl      1  UNL1       -0.0814
     16 C          63.1375   82.3667   11.3929 C.ar    1  UNL1        0.0679
     17 CL         63.5681   81.3758   10.3523 Cl      1  UNL1       -0.0814
     18 C          63.0941   83.8294   11.0633 C.ar    1  UNL1        0.0080
@<TRIPOS>BOND
     1     1     2    1
     2     2     3    1
     3     4     3    1
     4     4     5    1
     5     5     6    1
     6     6     7    1
     7     7     8    1
     8     8     9    1
     9     9    11    1
    10    11    12   ar
    11    12    13   ar
    12    13    14   ar
    13    14    15    1
    14    14    16   ar
    15    16    17    1
    16    16    18   ar
    17     9    10    1
    18    10     2    1
    19     9     4    1
    20    18    11   ar
@<TRIPOS>MOLECULE
*****
 18 20 0 0 0
SMALL
GASTEIGER

@<TRIPOS>ATOM
      1 C          59.4783   88.6121   11.8051 C.3     1  UNL1        0.0896
      2 N          60.2851   87.6834   10.9469 N.3     1  UNL1       -0.2712
      3 C          60.1860   87.5509    9.4561 C.3     1  UNL1        0.0725
      4 C          61.1724   86.5098    9.0166 C.3     1  UNL1        0.0210
      5 C          61.5167   85.9610    7.6637 C.3     1  UNL1        0.0017
      6 C          62.5698   84.9013    7.5301 C.3     1  UNL1        0.0001
      7 C          63.2785   84.3903    8.7493 C.3     1  UNL1        0.0004
      8 C          62.9342   84.9391   10.1022 C.3     1  UNL1        0.0054
      9 C          61.8811   85.9988   10.2358 C.3     1  UNL1        0.0349
     10 C          61.3328   86.7242   11.4288 C.3     1  UNL1        0.0762
     11 C          62.5017   85.5877   11.5381 C.ar    1  UNL1       -0.0206
     12 C          62.4701   84.1495   11.9630 C.ar    1  UNL1       -0.0033
     13 C          63.0906   83.7384   13.2652 C.ar    1  UNL1        0.0119
     14 C          63.7427   84.7655   14.1426 C.ar    1  UNL1        0.0682
     15 CL         64.3633   84.3544   15.4449 Cl      1  UNL1       -0.0814
     16 C          63.7743   86.2037   13.7178 C.ar    1  UNL1        0.0679
     17 CL         64.4265   87.2308   14.5952 Cl      1  UNL1       -0.0814
     18 C          63.1538   86.6148   12.4155 C.ar    1  UNL1        0.0080
@<TRIPOS>BOND
     1     1     2    1
     2     2     3    1
     3     4     3    1
     4     4     5    1
     5     5     6    1
     6     6     7    1
     7     7     8    1
     8     8     9    1
     9     9    11    1
    10    11    12   ar
    11    12    13   ar
    12    13    14   ar
    13    14    15    1
    14    14    16   ar
    15    16    17    1
    16    16    18   ar
    17     9    10    1
    18    10     2    1
    19     9     4    1
    20    18    11   ar
@<TRIPOS>MOLECULE
*****
 18 20 0 0 0
SMALL
GASTEIGER

@<TRIPOS>ATOM
      1 C          61.8209   90.4058   10.6255 C.3     1  UNL1        0.0896
      2 N          62.3969   89.3305   11.4985 N.3     1  UNL1       -0.2712
      3 C          62.3286   87.8545   11.2405 C.3     1  UNL1        0.0725
      4 C          63.0319   87.1542   12.3652 C.3     1  UNL1        0.0210
      5 C          63.2792   85.7014   12.6446 C.3     1  UNL1        0.0017
      6 C          64.0295   85.2919   13.8772 C.3     1  UNL1        0.0001
      7 C          64.5324   86.3352   14.8304 C.3     1  UNL1        0.0004
      8 C          64.2851   87.7880   14.5510 C.3     1  UNL1        0.0054
      9 C          63.5348   88.1975   13.3185 C.3     1  UNL1        0.0349
     10 C          63.1423   89.5425   12.7828 C.3     1  UNL1        0.0762
     11 C          63.9747   89.3475   14.1752 C.ar    1  UNL1       -0.0206
     12 C          63.2922   89.6115   15.4846 C.ar    1  UNL1       -0.0033
     13 C          63.7321   90.7614   16.3412 C.ar    1  UNL1        0.0119
     14 C          64.8546   91.6474   15.8886 C.ar    1  UNL1        0.0682
     15 CL         65.2946   92.7974   16.7454 Cl      1  UNL1       -0.0814
     16 C          65.5372   91.3835   14.5794 C.ar    1  UNL1        0.0679
     17 CL         66.6598   92.2695   14.1267 Cl      1  UNL1       -0.0814
     18 C          65.0973   90.2335   13.7226 C.ar    1  UNL1        0.0080
@<TRIPOS>BOND
     1     1     2    1
     2     2     3    1
     3     4     3    1
     4     4     5    1
     5     5     6    1
     6     6     7    1
     7     7     8    1
     8     8     9    1
     9     9    11    1
    10    11    12   ar
    11    12    13   ar
    12    13    14   ar
    13    14    15    1
    14    14    16   ar
    15    16    17    1
    16    16    18   ar
    17     9    10    1
    18    10     2    1
    19     9     4    1
    20    18    11   ar
