@<TRIPOS>MOLECULE
*****
 28 31 0 0 0
SMALL
GASTEIGER

@<TRIPOS>ATOM
      1 C          64.9704   90.5453   14.3216 C.ar    1  UNL1        0.0516
      2 C          66.2928   91.2315   14.4963 C.ar    1  UNL1        0.0147
      3 C          66.7219   92.2912   13.5255 C.ar    1  UNL1        0.0010
      4 C          65.8287   92.6650   12.3798 C.ar    1  UNL1       -0.0014
      5 C          64.5063   91.9789   12.2050 C.ar    1  UNL1        0.0010
      6 C          64.0772   90.9190   13.1759 C.ar    1  UNL1        0.0147
      7 C          66.2579   93.7248   11.4089 C.2     1  UNL1        0.0158
      8 C          65.7582   95.1306   11.5640 C.2     1  UNL1        0.0487
      9 C          66.1873   96.1904   10.5932 C.2     1  UNL1        0.2355
     10 N          67.1162   95.8445    9.4673 N.2     1  UNL1       -0.0325
     11 C          67.6159   94.4387    9.3122 C.2     1  UNL1        0.3799
     12 N          68.5329   93.8044    8.3089 N.2     1  UNL1       -0.0106
     13 C          68.6704   92.3525    8.6596 C.2     1  UNL1        0.3351
     14 N          67.8384   92.0895    9.8797 N.2     1  UNL1       -0.2103
     15 C          67.1867   93.3789   10.2831 C.3     1  UNL1        0.2404
     16 O          64.2396   87.8099   13.3299 O.2     1  UNL1       -0.2522
     17 C          64.1758   88.1177   14.7966 C.2     1  UNL1        0.3082
     18 N          64.5413   89.4855   15.2923 N.am    1  UNL1       -0.2681
     19 N          63.7467   87.0579   15.7674 N.am    1  UNL1       -0.2680
     20 H          64.4994   89.6876   16.2550 H       1  UNL1        0.1564
     21 H          63.7049   87.2600   16.7300 H       1  UNL1        0.1564
     22 C          63.3813   85.6901   15.2716 C.ar    1  UNL1        0.0521
     23 C          62.3945   84.8554   16.0327 C.ar    1  UNL1        0.0147
     24 C          62.0290   83.4877   15.5370 C.ar    1  UNL1        0.0018
     25 C          62.6504   82.9547   14.2801 C.ar    1  UNL1        0.0068
     26 C          63.6372   83.7895   13.5189 C.ar    1  UNL1        0.0358
     27 BR         64.2586   83.2565   12.2620 Br      1  UNL1       -0.0490
     28 C          64.0027   85.1573   14.0147 C.ar    1  UNL1        0.0214
@<TRIPOS>BOND
     1    16    17    2
     2    17    18   am
     3    18     1    1
     4     1     2   ar
     5     2     3   ar
     6     3     4   ar
     7     4     7    1
     8     7     8    2
     9     8     9    1
    10     9    10    2
    11    10    11    1
    12    11    12    2
    13    12    13    1
    14    13    14    2
    15    14    15    1
    16     4     5   ar
    17     5     6   ar
    18    17    19   am
    19    19    22    1
    20    22    23   ar
    21    23    24   ar
    22    24    25   ar
    23    25    26   ar
    24    26    27    1
    25    26    28   ar
    26     6     1   ar
    27    28    22   ar
    28    15     7    1
    29    15    11    1
    30    18    20    1
    31    19    21    1
@<TRIPOS>MOLECULE
*****
 28 31 0 0 0
SMALL
GASTEIGER

@<TRIPOS>ATOM
      1 C          63.5539   87.5500   15.6745 C.ar    1  UNL1        0.0516
      2 C          64.5675   87.6638   14.5746 C.ar    1  UNL1        0.0147
      3 C          65.1827   88.9942   14.2563 C.ar    1  UNL1        0.0010
      4 C          64.7844   90.2110   15.0379 C.ar    1  UNL1       -0.0014
      5 C          63.7708   90.0973   16.1378 C.ar    1  UNL1        0.0010
      6 C          63.1556   88.7668   16.4561 C.ar    1  UNL1        0.0147
      7 C          65.3996   91.5415   14.7196 C.2     1  UNL1        0.0158
      8 C          66.1073   92.3163   15.7915 C.2     1  UNL1        0.0487
      9 C          66.7226   93.6466   15.4732 C.2     1  UNL1        0.2355
     10 N          66.6302   94.2024   14.0829 N.2     1  UNL1       -0.0325
     11 C          65.9225   93.4276   13.0111 C.2     1  UNL1        0.3799
     12 N          65.6733   93.7185   11.5608 N.2     1  UNL1       -0.0106
     13 C          64.9041   92.5678   10.9828 C.2     1  UNL1        0.3351
     14 N          64.6778   91.5658   12.0758 N.2     1  UNL1       -0.2103
     15 C          65.3072   92.0972   13.3294 C.3     1  UNL1        0.2404
     16 O          63.6608   85.3280   13.6619 O.2     1  UNL1       -0.2522
     17 C          62.9921   85.1085   14.9865 C.2     1  UNL1        0.3082
     18 N          62.9386   86.2197   15.9928 N.am    1  UNL1       -0.2681
     19 N          62.3769   83.7781   15.3048 N.am    1  UNL1       -0.2680
     20 H          62.4997   86.0757   16.8622 H       1  UNL1        0.1564
     21 H          61.9380   83.6341   16.1742 H       1  UNL1        0.1564
     22 C          62.4303   82.6670   14.2984 C.ar    1  UNL1        0.0521
     23 C          61.8087   81.3389   14.6140 C.ar    1  UNL1        0.0147
     24 C          61.8621   80.2278   13.6078 C.ar    1  UNL1        0.0018
     25 C          62.5371   80.4448   12.2859 C.ar    1  UNL1        0.0068
     26 C          63.1588   81.7730   11.9703 C.ar    1  UNL1        0.0358
     27 BR         63.8338   81.9900   10.6486 Br      1  UNL1       -0.0490
     28 C          63.1053   82.8841   12.9767 C.ar    1  UNL1        0.0214
@<TRIPOS>BOND
     1    16    17    2
     2    17    18   am
     3    18     1    1
     4     1     2   ar
     5     2     3   ar
     6     3     4   ar
     7     4     7    1
     8     7     8    2
     9     8     9    1
    10     9    10    2
    11    10    11    1
    12    11    12    2
    13    12    13    1
    14    13    14    2
    15    14    15    1
    16     4     5   ar
    17     5     6   ar
    18    17    19   am
    19    19    22    1
    20    22    23   ar
    21    23    24   ar
    22    24    25   ar
    23    25    26   ar
    24    26    27    1
    25    26    28   ar
    26     6     1   ar
    27    28    22   ar
    28    15     7    1
    29    15    11    1
    30    18    20    1
    31    19    21    1
@<TRIPOS>MOLECULE
*****
 28 31 0 0 0
SMALL
GASTEIGER

@<TRIPOS>ATOM
      1 C          64.1143   90.1419   13.3471 C.ar    1  UNL1        0.0516
      2 C          64.5521   89.1313   14.3656 C.ar    1  UNL1        0.0147
      3 C          64.2183   87.6815   14.1751 C.ar    1  UNL1        0.0010
      4 C          63.4465   87.2420   12.9662 C.ar    1  UNL1       -0.0014
      5 C          63.0087   88.2525   11.9478 C.ar    1  UNL1        0.0010
      6 C          63.3426   89.7024   12.1383 C.ar    1  UNL1        0.0147
      7 C          63.1127   85.7921   12.7758 C.2     1  UNL1        0.0158
      8 C          62.8951   85.2476   11.3951 C.2     1  UNL1        0.0487
      9 C          62.5612   83.7978   11.2047 C.2     1  UNL1        0.2355
     10 N          62.4449   82.8922   12.3949 N.2     1  UNL1       -0.0325
     11 C          62.6625   83.4367   13.7755 C.2     1  UNL1        0.3799
     12 N          62.6149   82.7904   15.1283 N.2     1  UNL1       -0.0106
     13 C          62.9194   83.8409   16.1548 C.2     1  UNL1        0.3351
     14 N          63.1551   85.1364   15.4365 N.2     1  UNL1       -0.2103
     15 C          62.9964   84.8866   13.9660 C.3     1  UNL1        0.2404
     16 O          65.4209   91.6840   11.1302 O.2     1  UNL1       -0.2522
     17 C          65.1015   92.3629   12.4291 C.2     1  UNL1        0.3082
     18 N          64.4482   91.5917   13.5376 N.am    1  UNL1       -0.2681
     19 N          65.4354   93.8127   12.6196 N.am    1  UNL1       -0.2680
     20 H          64.2385   92.0372   14.3901 H       1  UNL1        0.1564
     21 H          65.2257   94.2582   13.4721 H       1  UNL1        0.1564
     22 C          66.0887   94.5838   11.5111 C.ar    1  UNL1        0.0521
     23 C          66.0176   96.0821   11.4966 C.ar    1  UNL1        0.0147
     24 C          66.6709   96.8532   10.3883 C.ar    1  UNL1        0.0018
     25 C          67.3953   96.1262    9.2943 C.ar    1  UNL1        0.0068
     26 C          67.4664   94.6278    9.3088 C.ar    1  UNL1        0.0358
     27 BR         68.1907   93.9008    8.2150 Br      1  UNL1       -0.0490
     28 C          66.8130   93.8567   10.4173 C.ar    1  UNL1        0.0214
@<TRIPOS>BOND
     1    16    17    2
     2    17    18   am
     3    18     1    1
     4     1     2   ar
     5     2     3   ar
     6     3     4   ar
     7     4     7    1
     8     7     8    2
     9     8     9    1
    10     9    10    2
    11    10    11    1
    12    11    12    2
    13    12    13    1
    14    13    14    2
    15    14    15    1
    16     4     5   ar
    17     5     6   ar
    18    17    19   am
    19    19    22    1
    20    22    23   ar
    21    23    24   ar
    22    24    25   ar
    23    25    26   ar
    24    26    27    1
    25    26    28   ar
    26     6     1   ar
    27    28    22   ar
    28    15     7    1
    29    15    11    1
    30    18    20    1
    31    19    21    1
@<TRIPOS>MOLECULE
*****
 28 31 0 0 0
SMALL
GASTEIGER

@<TRIPOS>ATOM
      1 C          62.8292   87.1295   12.1176 C.ar    1  UNL1        0.0516
      2 C          62.1898   86.5240   10.9033 C.ar    1  UNL1        0.0147
      3 C          62.2090   85.0370   10.7081 C.ar    1  UNL1        0.0010
      4 C          62.8677   84.1552   11.7274 C.ar    1  UNL1       -0.0014
      5 C          63.5071   84.7606   12.9417 C.ar    1  UNL1        0.0010
      6 C          63.4878   86.2478   13.1368 C.ar    1  UNL1        0.0147
      7 C          62.8869   82.6681   11.5322 C.2     1  UNL1        0.0158
      8 C          63.4167   82.0861   10.2553 C.2     1  UNL1        0.0487
      9 C          63.4359   80.5990   10.0601 C.2     1  UNL1        0.2355
     10 N          62.9254   79.6938   11.1418 N.2     1  UNL1       -0.0325
     11 C          62.3956   80.2759   12.4188 C.2     1  UNL1        0.3799
     12 N          61.8304   79.6389   13.6536 N.2     1  UNL1       -0.0106
     13 C          61.4618   80.7324   14.6119 C.2     1  UNL1        0.3351
     14 N          61.7993   82.0452   13.9694 N.2     1  UNL1       -0.2103
     15 C          62.3764   81.7630   12.6139 C.3     1  UNL1        0.2404
     16 O          64.6719   88.4046   14.1123 O.2     1  UNL1       -0.2522
     17 C          63.7313   89.2542   13.3101 C.2     1  UNL1        0.3082
     18 N          62.8099   88.6166   12.3128 N.am    1  UNL1       -0.2681
     19 N          63.7121   90.7412   13.5053 N.am    1  UNL1       -0.2680
     20 H          62.1926   89.1742   11.7863 H       1  UNL1        0.1564
     21 H          63.0947   91.2988   12.9788 H       1  UNL1        0.1564
     22 C          64.6334   91.3788   14.5026 C.ar    1  UNL1        0.0521
     23 C          64.1412   91.6935   15.8841 C.ar    1  UNL1        0.0147
     24 C          65.0624   92.3311   16.8815 C.ar    1  UNL1        0.0018
     25 C          66.4760   92.6540   16.4973 C.ar    1  UNL1        0.0068
     26 C          66.9683   92.3394   15.1157 C.ar    1  UNL1        0.0358
     27 BR         68.3817   92.6623   14.7315 Br      1  UNL1       -0.0490
     28 C          66.0469   91.7017   14.1183 C.ar    1  UNL1        0.0214
@<TRIPOS>BOND
     1    16    17    2
     2    17    18   am
     3    18     1    1
     4     1     2   ar
     5     2     3   ar
     6     3     4   ar
     7     4     7    1
     8     7     8    2
     9     8     9    1
    10     9    10    2
    11    10    11    1
    12    11    12    2
    13    12    13    1
    14    13    14    2
    15    14    15    1
    16     4     5   ar
    17     5     6   ar
    18    17    19   am
    19    19    22    1
    20    22    23   ar
    21    23    24   ar
    22    24    25   ar
    23    25    26   ar
    24    26    27    1
    25    26    28   ar
    26     6     1   ar
    27    28    22   ar
    28    15     7    1
    29    15    11    1
    30    18    20    1
    31    19    21    1
@<TRIPOS>MOLECULE
*****
 28 31 0 0 0
SMALL
GASTEIGER

@<TRIPOS>ATOM
      1 C          63.0451   88.2071   12.3039 C.ar    1  UNL1        0.0516
      2 C          63.8265   88.1158   13.5811 C.ar    1  UNL1        0.0147
      3 C          64.6167   89.2962   14.0628 C.ar    1  UNL1        0.0010
      4 C          64.6256   90.5680   13.2674 C.ar    1  UNL1       -0.0014
      5 C          63.8443   90.6593   11.9902 C.ar    1  UNL1        0.0010
      6 C          63.0540   89.4788   11.5085 C.ar    1  UNL1        0.0147
      7 C          65.4158   91.7484   13.7492 C.2     1  UNL1        0.0158
      8 C          65.9202   91.7874   15.1613 C.2     1  UNL1        0.0487
      9 C          66.7104   92.9678   15.6431 C.2     1  UNL1        0.2355
     10 N          66.9963   94.1093   14.7128 N.2     1  UNL1       -0.0325
     11 C          66.4919   94.0702   13.3007 C.2     1  UNL1        0.3799
     12 N          66.6161   95.0404   12.1634 N.2     1  UNL1       -0.0106
     13 C          65.9027   94.4595   10.9787 C.2     1  UNL1        0.3351
     14 N          65.3375   93.1304   11.3838 N.2     1  UNL1       -0.2103
     15 C          65.7017   92.8898   12.8189 C.3     1  UNL1        0.2404
     16 O          63.8549   85.4318   13.1052 O.2     1  UNL1       -0.2522
     17 C          62.6598   85.6390   12.2228 C.2     1  UNL1        0.3082
     18 N          62.2549   87.0267   11.8221 N.am    1  UNL1       -0.2681
     19 N          61.8696   84.4586   11.7410 N.am    1  UNL1       -0.2680
     20 H          61.4705   87.1627   11.2429 H       1  UNL1        0.1564
     21 H          61.0852   84.5946   11.1619 H       1  UNL1        0.1564
     22 C          62.2745   83.0709   12.1417 C.ar    1  UNL1        0.0521
     23 C          62.4834   82.7393   13.5896 C.ar    1  UNL1        0.0147
     24 C          62.8883   81.3517   13.9903 C.ar    1  UNL1        0.0018
     25 C          63.0843   80.2957   12.9432 C.ar    1  UNL1        0.0068
     26 C          62.8753   80.6274   11.4952 C.ar    1  UNL1        0.0358
     27 BR         63.0713   79.5715   10.4481 Br      1  UNL1       -0.0490
     28 C          62.4704   82.0151   11.0945 C.ar    1  UNL1        0.0214
@<TRIPOS>BOND
     1    16    17    2
     2    17    18   am
     3    18     1    1
     4     1     2   ar
     5     2     3   ar
     6     3     4   ar
     7     4     7    1
     8     7     8    2
     9     8     9    1
    10     9    10    2
    11    10    11    1
    12    11    12    2
    13    12    13    1
    14    13    14    2
    15    14    15    1
    16     4     5   ar
    17     5     6   ar
    18    17    19   am
    19    19    22    1
    20    22    23   ar
    21    23    24   ar
    22    24    25   ar
    23    25    26   ar
    24    26    27    1
    25    26    28   ar
    26     6     1   ar
    27    28    22   ar
    28    15     7    1
    29    15    11    1
    30    18    20    1
    31    19    21    1
@<TRIPOS>MOLECULE
*****
 28 31 0 0 0
SMALL
GASTEIGER

@<TRIPOS>ATOM
      1 C          62.7555   88.6434   11.5873 C.ar    1  UNL1        0.0516
      2 C          62.8409   89.6251   10.4563 C.ar    1  UNL1        0.0147
      3 C          63.6238   90.8937   10.6218 C.ar    1  UNL1        0.0010
      4 C          64.3214   91.1808   11.9184 C.ar    1  UNL1       -0.0014
      5 C          64.2360   90.1992   13.0494 C.ar    1  UNL1        0.0010
      6 C          63.4530   88.9305   12.8838 C.ar    1  UNL1        0.0147
      7 C          65.1043   92.4495   12.0839 C.2     1  UNL1        0.0158
      8 C          65.1905   93.4307   10.9526 C.2     1  UNL1        0.0487
      9 C          65.9733   94.6993   11.1180 C.2     1  UNL1        0.2355
     10 N          66.6702   94.9870   12.4149 N.2     1  UNL1       -0.0325
     11 C          66.5840   94.0058   13.5462 C.2     1  UNL1        0.3799
     12 N          67.1613   94.0171   14.9307 N.2     1  UNL1       -0.0106
     13 C          66.7351   92.7553   15.6208 C.2     1  UNL1        0.3351
     14 N          65.8945   91.9642   14.6629 N.2     1  UNL1       -0.2103
     15 C          65.8011   92.7371   13.3807 C.3     1  UNL1        0.2404
     16 O          63.8467   86.0581   12.6481 O.2     1  UNL1       -0.2522
     17 C          62.5182   86.0820   11.9522 C.2     1  UNL1        0.3082
     18 N          61.9726   87.3748   11.4218 N.am    1  UNL1       -0.2681
     19 N          61.7353   84.8134   11.7866 N.am    1  UNL1       -0.2680
     20 H          61.1006   87.3905   10.9650 H       1  UNL1        0.1564
     21 H          60.8633   84.8292   11.3299 H       1  UNL1        0.1564
     22 C          62.2809   83.5207   12.3170 C.ar    1  UNL1        0.0521
     23 C          62.7316   83.4264   13.7446 C.ar    1  UNL1        0.0147
     24 C          63.2772   82.1338   14.2750 C.ar    1  UNL1        0.0018
     25 C          63.3721   80.9354   13.3779 C.ar    1  UNL1        0.0068
     26 C          62.9213   81.0296   11.9503 C.ar    1  UNL1        0.0358
     27 BR         63.0162   79.8313   11.0532 Br      1  UNL1       -0.0490
     28 C          62.3757   82.3224   11.4199 C.ar    1  UNL1        0.0214
@<TRIPOS>BOND
     1    16    17    2
     2    17    18   am
     3    18     1    1
     4     1     2   ar
     5     2     3   ar
     6     3     4   ar
     7     4     7    1
     8     7     8    2
     9     8     9    1
    10     9    10    2
    11    10    11    1
    12    11    12    2
    13    12    13    1
    14    13    14    2
    15    14    15    1
    16     4     5   ar
    17     5     6   ar
    18    17    19   am
    19    19    22    1
    20    22    23   ar
    21    23    24   ar
    22    24    25   ar
    23    25    26   ar
    24    26    27    1
    25    26    28   ar
    26     6     1   ar
    27    28    22   ar
    28    15     7    1
    29    15    11    1
    30    18    20    1
    31    19    21    1
@<TRIPOS>MOLECULE
*****
 28 31 0 0 0
SMALL
GASTEIGER

@<TRIPOS>ATOM
      1 C          64.2748   90.3969   13.6804 C.ar    1  UNL1        0.0516
      2 C          64.8376   89.6475   14.8517 C.ar    1  UNL1        0.0147
      3 C          64.6663   88.1602   14.9429 C.ar    1  UNL1        0.0010
      4 C          63.9323   87.4221   13.8628 C.ar    1  UNL1       -0.0014
      5 C          63.3695   88.1714   12.6915 C.ar    1  UNL1        0.0010
      6 C          63.5408   89.6589   12.6004 C.ar    1  UNL1        0.0147
      7 C          63.7611   85.9347   13.9540 C.2     1  UNL1        0.0158
      8 C          64.1111   85.2159   15.2231 C.2     1  UNL1        0.0487
      9 C          63.9398   83.7285   15.3143 C.2     1  UNL1        0.2355
     10 N          63.4186   82.9599   14.1364 N.2     1  UNL1       -0.0325
     11 C          63.0686   83.6787   12.8672 C.2     1  UNL1        0.3799
     12 N          62.5372   83.1917   11.5517 N.2     1  UNL1       -0.0106
     13 C          62.3801   84.3781   10.6475 C.2     1  UNL1        0.3351
     14 N          62.8143   85.5984   11.4041 N.2     1  UNL1       -0.2103
     15 C          63.2398   85.1661   12.7760 C.3     1  UNL1        0.2404
     16 O          65.7972   91.5939   11.3892 O.2     1  UNL1       -0.2522
     17 C          65.2073   92.4828   12.4436 C.2     1  UNL1        0.3082
     18 N          64.4461   91.8842   13.5893 N.am    1  UNL1       -0.2681
     19 N          65.3786   93.9701   12.3525 N.am    1  UNL1       -0.2680
     20 H          64.0589   92.4677   14.2813 H       1  UNL1        0.1564
     21 H          64.9913   94.5535   13.0445 H       1  UNL1        0.1564
     22 C          66.1398   94.5687   11.2068 C.ar    1  UNL1        0.0521
     23 C          66.0812   96.0468   10.9582 C.ar    1  UNL1        0.0147
     24 C          66.8424   96.6453    9.8127 C.ar    1  UNL1        0.0018
     25 C          67.6621   95.7658    8.9157 C.ar    1  UNL1        0.0068
     26 C          67.7207   94.2877    9.1644 C.ar    1  UNL1        0.0358
     27 BR         68.5404   93.4082    8.2675 Br      1  UNL1       -0.0490
     28 C          66.9594   93.6891   10.3100 C.ar    1  UNL1        0.0214
@<TRIPOS>BOND
     1    16    17    2
     2    17    18   am
     3    18     1    1
     4     1     2   ar
     5     2     3   ar
     6     3     4   ar
     7     4     7    1
     8     7     8    2
     9     8     9    1
    10     9    10    2
    11    10    11    1
    12    11    12    2
    13    12    13    1
    14    13    14    2
    15    14    15    1
    16     4     5   ar
    17     5     6   ar
    18    17    19   am
    19    19    22    1
    20    22    23   ar
    21    23    24   ar
    22    24    25   ar
    23    25    26   ar
    24    26    27    1
    25    26    28   ar
    26     6     1   ar
    27    28    22   ar
    28    15     7    1
    29    15    11    1
    30    18    20    1
    31    19    21    1
@<TRIPOS>MOLECULE
*****
 28 31 0 0 0
SMALL
GASTEIGER

@<TRIPOS>ATOM
      1 C          63.4358   86.8448   15.3522 C.ar    1  UNL1        0.0516
      2 C          62.8181   85.7953   16.2282 C.ar    1  UNL1        0.0147
      3 C          62.5759   84.4165   15.6899 C.ar    1  UNL1        0.0010
      4 C          62.9513   84.0868   14.2754 C.ar    1  UNL1       -0.0014
      5 C          63.5690   85.1362   13.3994 C.ar    1  UNL1        0.0010
      6 C          63.8112   86.5151   13.9378 C.ar    1  UNL1        0.0147
      7 C          62.7091   82.7079   13.7371 C.2     1  UNL1        0.0158
      8 C          62.0277   81.6789   14.5897 C.2     1  UNL1        0.0487
      9 C          61.7854   80.3000   14.0514 C.2     1  UNL1        0.2355
     10 N          62.2247   79.9499   12.6605 N.2     1  UNL1       -0.0325
     11 C          62.9061   80.9789   11.8079 C.2     1  UNL1        0.3799
     12 N          63.4466   80.9255   10.4097 N.2     1  UNL1       -0.0106
     13 C          64.0228   82.2715   10.0839 C.2     1  UNL1        0.3351
     14 N          63.8385   83.1567   11.2807 N.2     1  UNL1       -0.2103
     15 C          63.1483   82.3578   12.3462 C.3     1  UNL1        0.2404
     16 O          64.6815   88.9402   13.6037 O.2     1  UNL1       -0.2522
     17 C          64.3009   89.2714   15.0162 C.2     1  UNL1        0.3082
     18 N          63.6780   88.2236   15.8905 N.am    1  UNL1       -0.2681
     19 N          64.5431   90.6503   15.5546 N.am    1  UNL1       -0.2680
     20 H          63.4281   88.4410   16.8176 H       1  UNL1        0.1564
     21 H          64.2932   90.8677   16.4817 H       1  UNL1        0.1564
     22 C          65.1659   91.6981   14.6803 C.ar    1  UNL1        0.0521
     23 C          66.0848   92.7229   15.2765 C.ar    1  UNL1        0.0147
     24 C          66.7077   93.7707   14.4024 C.ar    1  UNL1        0.0018
     25 C          66.4117   93.7937   12.9320 C.ar    1  UNL1        0.0068
     26 C          65.4928   92.7688   12.3358 C.ar    1  UNL1        0.0358
     27 BR         65.1968   92.7918   10.8656 Br      1  UNL1       -0.0490
     28 C          64.8699   91.7210   13.2101 C.ar    1  UNL1        0.0214
@<TRIPOS>BOND
     1    16    17    2
     2    17    18   am
     3    18     1    1
     4     1     2   ar
     5     2     3   ar
     6     3     4   ar
     7     4     7    1
     8     7     8    2
     9     8     9    1
    10     9    10    2
    11    10    11    1
    12    11    12    2
    13    12    13    1
    14    13    14    2
    15    14    15    1
    16     4     5   ar
    17     5     6   ar
    18    17    19   am
    19    19    22    1
    20    22    23   ar
    21    23    24   ar
    22    24    25   ar
    23    25    26   ar
    24    26    27    1
    25    26    28   ar
    26     6     1   ar
    27    28    22   ar
    28    15     7    1
    29    15    11    1
    30    18    20    1
    31    19    21    1
@<TRIPOS>MOLECULE
*****
 28 31 0 0 0
SMALL
GASTEIGER

@<TRIPOS>ATOM
      1 C          63.2201   87.5678   12.5339 C.ar    1  UNL1        0.0516
      2 C          63.9277   87.2599   13.8202 C.ar    1  UNL1        0.0147
      3 C          64.4807   88.3748   14.6575 C.ar    1  UNL1        0.0010
      4 C          64.3263   89.7977   14.2085 C.ar    1  UNL1       -0.0014
      5 C          63.6188   90.1057   12.9221 C.ar    1  UNL1        0.0010
      6 C          63.0657   88.9907   12.0849 C.ar    1  UNL1        0.0147
      7 C          64.8793   90.9126   15.0458 C.2     1  UNL1        0.0158
      8 C          64.1412   91.3690   16.2693 C.2     1  UNL1        0.0487
      9 C          64.6942   92.4838   17.1066 C.2     1  UNL1        0.2355
     10 N          65.9855   93.1424   16.7204 N.2     1  UNL1       -0.0325
     11 C          66.7236   92.6861   15.4969 C.2     1  UNL1        0.3799
     12 N          68.0088   93.1417   14.8719 N.2     1  UNL1       -0.0106
     13 C          68.2500   92.3084   13.6482 C.2     1  UNL1        0.3351
     14 N          67.1139   91.3377   13.5170 N.2     1  UNL1       -0.2103
     15 C          66.1705   91.5712   14.6596 C.3     1  UNL1        0.2404
     16 O          63.5096   84.7235   13.4428 O.2     1  UNL1       -0.2522
     17 C          62.8118   85.0307   12.1511 C.2     1  UNL1        0.3082
     18 N          62.6671   86.4529   11.6966 N.am    1  UNL1       -0.2681
     19 N          62.2588   83.9159   11.3138 N.am    1  UNL1       -0.2680
     20 H          62.2091   86.6546   10.8488 H       1  UNL1        0.1564
     21 H          61.8008   84.1175   10.4660 H       1  UNL1        0.1564
     22 C          62.4035   82.4936   11.7683 C.ar    1  UNL1        0.0521
     23 C          62.3156   82.1602   13.2281 C.ar    1  UNL1        0.0147
     24 C          62.4603   80.7381   13.6826 C.ar    1  UNL1        0.0018
     25 C          62.6930   79.6494   12.6773 C.ar    1  UNL1        0.0068
     26 C          62.7809   79.9829   11.2174 C.ar    1  UNL1        0.0358
     27 BR         63.0135   78.8943   10.2121 Br      1  UNL1       -0.0490
     28 C          62.6362   81.4051   10.7629 C.ar    1  UNL1        0.0214
@<TRIPOS>BOND
     1    16    17    2
     2    17    18   am
     3    18     1    1
     4     1     2   ar
     5     2     3   ar
     6     3     4   ar
     7     4     7    1
     8     7     8    2
     9     8     9    1
    10     9    10    2
    11    10    11    1
    12    11    12    2
    13    12    13    1
    14    13    14    2
    15    14    15    1
    16     4     5   ar
    17     5     6   ar
    18    17    19   am
    19    19    22    1
    20    22    23   ar
    21    23    24   ar
    22    24    25   ar
    23    25    26   ar
    24    26    27    1
    25    26    28   ar
    26     6     1   ar
    27    28    22   ar
    28    15     7    1
    29    15    11    1
    30    18    20    1
    31    19    21    1
