@<TRIPOS>MOLECULE
*****
 20 22 0 0 0
SMALL
GASTEIGER

@<TRIPOS>ATOM
      1 O          60.3316   87.8309   11.5584 O.2     1  UNL1       -0.2866
      2 C          61.7921   87.6893   11.2471 C.2     1  UNL1        0.1956
      3 C          62.2783   86.5171   10.4473 C.ar    1  UNL1        0.0390
      4 C          62.2697   86.5765    8.9486 C.ar    1  UNL1        0.0032
      5 C          62.7558   85.4043    8.1487 C.ar    1  UNL1        0.0001
      6 C          63.2506   84.1728    8.8477 C.ar    1  UNL1        0.0000
      7 C          63.2593   84.1135   10.3465 C.ar    1  UNL1        0.0001
      8 C          63.7540   82.8820   11.0455 C.ar    1  UNL1        0.0000
      9 C          63.7627   82.8226   12.5442 C.ar    1  UNL1        0.0000
     10 C          63.2765   83.9948   13.3441 C.ar    1  UNL1        0.0000
     11 C          62.7817   85.2263   12.6451 C.ar    1  UNL1        0.0001
     12 C          62.7731   85.2856   11.1464 C.ar    1  UNL1        0.0031
     13 C          62.7665   88.7198   11.7357 C.2     1  UNL1        0.0421
     14 C          62.8315   90.0640   11.0732 C.2     1  UNL1        0.0048
     15 C          63.8059   91.0946   11.5618 C.ar    1  UNL1        0.0193
     16 C          64.4817   92.0105   10.5849 C.ar    1  UNL1        0.0031
     17 C          65.4560   93.0410   11.0734 C.ar    1  UNL1        0.0207
     18 C          65.7546   93.1556   12.5389 C.ar    1  UNL1        0.0989
     19 N          65.0787   92.2397   13.5159 N.ar    1  UNL1       -0.2423
     20 C          64.1044   91.2092   13.0273 C.ar    1  UNL1        0.0988
@<TRIPOS>BOND
     1     1     2    2
     2     2    13    1
     3    13    14    2
     4    14    15    1
     5    15    16   ar
     6    16    17   ar
     7    17    18   ar
     8    18    19   ar
     9    19    20   ar
    10     2     3    1
    11     3     4   ar
    12     4     5   ar
    13     5     6   ar
    14     6     7   ar
    15     7     8   ar
    16     8     9   ar
    17     9    10   ar
    18    10    11   ar
    19    11    12   ar
    20    20    15   ar
    21    12     3   ar
    22    12     7   ar
@<TRIPOS>MOLECULE
*****
 20 22 0 0 0
SMALL
GASTEIGER

@<TRIPOS>ATOM
      1 O          64.9634   82.8959   10.2778 O.2     1  UNL1       -0.2866
      2 C          63.7117   83.5298   10.8084 C.2     1  UNL1        0.1956
      3 C          63.0971   83.0260   12.0806 C.ar    1  UNL1        0.0390
      4 C          62.3241   81.7406   12.0824 C.ar    1  UNL1        0.0032
      5 C          61.7095   81.2367   13.3545 C.ar    1  UNL1        0.0001
      6 C          61.8678   82.0183   14.6249 C.ar    1  UNL1        0.0000
      7 C          62.6409   83.3039   14.6232 C.ar    1  UNL1        0.0001
      8 C          62.7992   84.0855   15.8936 C.ar    1  UNL1        0.0000
      9 C          63.5722   85.3709   15.8918 C.ar    1  UNL1        0.0000
     10 C          64.1869   85.8748   14.6197 C.ar    1  UNL1        0.0000
     11 C          64.0285   85.0931   13.3493 C.ar    1  UNL1        0.0001
     12 C          63.2555   83.8077   13.3510 C.ar    1  UNL1        0.0031
     13 C          63.0748   84.6675   10.0669 C.2     1  UNL1        0.0421
     14 C          61.8714   85.3560   10.6397 C.2     1  UNL1        0.0048
     15 C          61.2345   86.4937    9.8981 C.ar    1  UNL1        0.0193
     16 C          60.4063   86.2230    8.6771 C.ar    1  UNL1        0.0031
     17 C          59.7693   87.3606    7.9355 C.ar    1  UNL1        0.0207
     18 C          59.9605   88.7690    8.4150 C.ar    1  UNL1        0.0989
     19 N          60.7887   89.0397    9.6360 N.ar    1  UNL1       -0.2423
     20 C          61.4257   87.9021   10.3776 C.ar    1  UNL1        0.0988
@<TRIPOS>BOND
     1     1     2    2
     2     2    13    1
     3    13    14    2
     4    14    15    1
     5    15    16   ar
     6    16    17   ar
     7    17    18   ar
     8    18    19   ar
     9    19    20   ar
    10     2     3    1
    11     3     4   ar
    12     4     5   ar
    13     5     6   ar
    14     6     7   ar
    15     7     8   ar
    16     8     9   ar
    17     9    10   ar
    18    10    11   ar
    19    11    12   ar
    20    20    15   ar
    21    12     3   ar
    22    12     7   ar
@<TRIPOS>MOLECULE
*****
 20 22 0 0 0
SMALL
GASTEIGER

@<TRIPOS>ATOM
      1 O          63.5737   91.5005   14.9804 O.2     1  UNL1       -0.2866
      2 C          64.0076   90.8221   13.7148 C.2     1  UNL1        0.1956
      3 C          63.8692   89.3350   13.5756 C.ar    1  UNL1        0.0390
      4 C          64.4262   88.4278   14.6322 C.ar    1  UNL1        0.0032
      5 C          64.2878   86.9407   14.4930 C.ar    1  UNL1        0.0001
      6 C          63.5924   86.3608   13.2971 C.ar    1  UNL1        0.0000
      7 C          63.0354   87.2681   12.2403 C.ar    1  UNL1        0.0001
      8 C          62.3401   86.6883   11.0444 C.ar    1  UNL1        0.0000
      9 C          61.7831   87.5956    9.9878 C.ar    1  UNL1        0.0000
     10 C          61.9215   89.0827   10.1270 C.ar    1  UNL1        0.0000
     11 C          62.6168   89.6625   11.3229 C.ar    1  UNL1        0.0001
     12 C          63.1738   88.7552   12.3796 C.ar    1  UNL1        0.0031
     13 C          64.5798   91.6309   12.5886 C.2     1  UNL1        0.0421
     14 C          65.9581   92.2109   12.7064 C.2     1  UNL1        0.0048
     15 C          66.5303   93.0196   11.5801 C.ar    1  UNL1        0.0193
     16 C          67.3507   92.3504   10.5175 C.ar    1  UNL1        0.0031
     17 C          67.9229   93.1590    9.3912 C.ar    1  UNL1        0.0207
     18 C          67.6747   94.6369    9.3275 C.ar    1  UNL1        0.0989
     19 N          66.8542   95.3062   10.3900 N.ar    1  UNL1       -0.2423
     20 C          66.2820   94.4975   11.5163 C.ar    1  UNL1        0.0988
@<TRIPOS>BOND
     1     1     2    2
     2     2    13    1
     3    13    14    2
     4    14    15    1
     5    15    16   ar
     6    16    17   ar
     7    17    18   ar
     8    18    19   ar
     9    19    20   ar
    10     2     3    1
    11     3     4   ar
    12     4     5   ar
    13     5     6   ar
    14     6     7   ar
    15     7     8   ar
    16     8     9   ar
    17     9    10   ar
    18    10    11   ar
    19    11    12   ar
    20    20    15   ar
    21    12     3   ar
    22    12     7   ar
@<TRIPOS>MOLECULE
*****
 20 22 0 0 0
SMALL
GASTEIGER

@<TRIPOS>ATOM
      1 O          60.6059   90.8728   11.0855 O.2     1  UNL1       -0.2866
      2 C          61.8543   90.0418   11.1195 C.2     1  UNL1        0.1956
      3 C          61.7881   88.5759   10.8081 C.ar    1  UNL1        0.0390
      4 C          62.5313   87.5931   11.6635 C.ar    1  UNL1        0.0032
      5 C          62.4651   86.1273   11.3520 C.ar    1  UNL1        0.0001
      6 C          61.6558   85.6443   10.1851 C.ar    1  UNL1        0.0000
      7 C          60.9126   86.6271    9.3296 C.ar    1  UNL1        0.0001
      8 C          60.1034   86.1441    8.1627 C.ar    1  UNL1        0.0000
      9 C          59.3602   87.1269    7.3073 C.ar    1  UNL1        0.0000
     10 C          59.4264   88.5927    7.6188 C.ar    1  UNL1        0.0000
     11 C          60.2357   89.0757    8.7857 C.ar    1  UNL1        0.0001
     12 C          60.9788   88.0929    9.6411 C.ar    1  UNL1        0.0031
     13 C          63.1687   90.6765   11.4650 C.2     1  UNL1        0.0421
     14 C          63.5874   90.8008   12.9000 C.2     1  UNL1        0.0048
     15 C          64.9019   91.4356   13.2454 C.ar    1  UNL1        0.0193
     16 C          65.6588   90.9807   14.4579 C.ar    1  UNL1        0.0031
     17 C          66.9732   91.6154   14.8034 C.ar    1  UNL1        0.0207
     18 C          67.5307   92.7051   13.9364 C.ar    1  UNL1        0.0989
     19 N          66.7738   93.1600   12.7239 N.ar    1  UNL1       -0.2423
     20 C          65.4594   92.5252   12.3784 C.ar    1  UNL1        0.0988
@<TRIPOS>BOND
     1     1     2    2
     2     2    13    1
     3    13    14    2
     4    14    15    1
     5    15    16   ar
     6    16    17   ar
     7    17    18   ar
     8    18    19   ar
     9    19    20   ar
    10     2     3    1
    11     3     4   ar
    12     4     5   ar
    13     5     6   ar
    14     6     7   ar
    15     7     8   ar
    16     8     9   ar
    17     9    10   ar
    18    10    11   ar
    19    11    12   ar
    20    20    15   ar
    21    12     3   ar
    22    12     7   ar
@<TRIPOS>MOLECULE
*****
 20 22 0 0 0
SMALL
GASTEIGER

@<TRIPOS>ATOM
      1 O          60.3056   88.3249   11.7675 O.2     1  UNL1       -0.2866
      2 C          61.7360   88.2457   11.3228 C.2     1  UNL1        0.1956
      3 C          62.5623   89.4940   11.2283 C.ar    1  UNL1        0.0390
      4 C          62.4991   90.3437    9.9939 C.ar    1  UNL1        0.0032
      5 C          63.3254   91.5920    9.8994 C.ar    1  UNL1        0.0001
      6 C          64.2149   91.9906   11.0395 C.ar    1  UNL1        0.0000
      7 C          64.2782   91.1409   12.2740 C.ar    1  UNL1        0.0001
      8 C          65.1678   91.5395   13.4141 C.ar    1  UNL1        0.0000
      9 C          65.2311   90.6898   14.6485 C.ar    1  UNL1        0.0000
     10 C          64.4048   89.4415   14.7430 C.ar    1  UNL1        0.0000
     11 C          63.5152   89.0429   13.6029 C.ar    1  UNL1        0.0001
     12 C          63.4519   89.8926   12.3685 C.ar    1  UNL1        0.0031
     13 C          62.3401   86.9181   10.9725 C.2     1  UNL1        0.0421
     14 C          62.1313   85.7378   11.8744 C.2     1  UNL1        0.0048
     15 C          62.7354   84.4102   11.5241 C.ar    1  UNL1        0.0193
     16 C          63.4810   84.2427   10.2333 C.ar    1  UNL1        0.0031
     17 C          64.0851   82.9151    9.8830 C.ar    1  UNL1        0.0207
     18 C          63.9436   81.7552   10.8234 C.ar    1  UNL1        0.0989
     19 N          63.1980   81.9228   12.1142 N.ar    1  UNL1       -0.2423
     20 C          62.5939   83.2503   12.4645 C.ar    1  UNL1        0.0988
@<TRIPOS>BOND
     1     1     2    2
     2     2    13    1
     3    13    14    2
     4    14    15    1
     5    15    16   ar
     6    16    17   ar
     7    17    18   ar
     8    18    19   ar
     9    19    20   ar
    10     2     3    1
    11     3     4   ar
    12     4     5   ar
    13     5     6   ar
    14     6     7   ar
    15     7     8   ar
    16     8     9   ar
    17     9    10   ar
    18    10    11   ar
    19    11    12   ar
    20    20    15   ar
    21    12     3   ar
    22    12     7   ar
@<TRIPOS>MOLECULE
*****
 20 22 0 0 0
SMALL
GASTEIGER

@<TRIPOS>ATOM
      1 O          63.2478   90.3473   16.4721 O.2     1  UNL1       -0.2866
      2 C          64.0187   89.9056   15.2635 C.2     1  UNL1        0.1956
      3 C          64.7556   90.9149   14.4338 C.ar    1  UNL1        0.0390
      4 C          65.8788   91.7052   15.0368 C.ar    1  UNL1        0.0032
      5 C          66.6157   92.7144   14.2072 C.ar    1  UNL1        0.0001
      6 C          66.2293   92.9335   12.7745 C.ar    1  UNL1        0.0000
      7 C          65.1060   92.1432   12.1714 C.ar    1  UNL1        0.0001
      8 C          64.7196   92.3622   10.7387 C.ar    1  UNL1        0.0000
      9 C          63.5963   91.5720   10.1356 C.ar    1  UNL1        0.0000
     10 C          62.8595   90.5627   10.9653 C.ar    1  UNL1        0.0000
     11 C          63.2458   90.3437   12.3980 C.ar    1  UNL1        0.0001
     12 C          64.3691   91.1339   13.0010 C.ar    1  UNL1        0.0031
     13 C          64.0526   88.4547   14.8846 C.2     1  UNL1        0.0421
     14 C          63.7393   87.4045   15.9087 C.2     1  UNL1        0.0048
     15 C          63.7733   85.9535   15.5297 C.ar    1  UNL1        0.0193
     16 C          64.8826   85.4296   14.6666 C.ar    1  UNL1        0.0031
     17 C          64.9166   83.9787   14.2876 C.ar    1  UNL1        0.0207
     18 C          63.8413   83.0517   14.7718 C.ar    1  UNL1        0.0989
     19 N          62.7321   83.5756   15.6349 N.ar    1  UNL1       -0.2423
     20 C          62.6980   85.0265   16.0139 C.ar    1  UNL1        0.0988
@<TRIPOS>BOND
     1     1     2    2
     2     2    13    1
     3    13    14    2
     4    14    15    1
     5    15    16   ar
     6    16    17   ar
     7    17    18   ar
     8    18    19   ar
     9    19    20   ar
    10     2     3    1
    11     3     4   ar
    12     4     5   ar
    13     5     6   ar
    14     6     7   ar
    15     7     8   ar
    16     8     9   ar
    17     9    10   ar
    18    10    11   ar
    19    11    12   ar
    20    20    15   ar
    21    12     3   ar
    22    12     7   ar
@<TRIPOS>MOLECULE
*****
 20 22 0 0 0
SMALL
GASTEIGER

@<TRIPOS>ATOM
      1 O          63.4162   91.1812   14.6833 O.2     1  UNL1       -0.2866
      2 C          63.9103   90.8945   13.2963 C.2     1  UNL1        0.1956
      3 C          63.3695   89.7205   12.5352 C.ar    1  UNL1        0.0390
      4 C          62.6316   89.9371   11.2473 C.ar    1  UNL1        0.0032
      5 C          62.0908   88.7631   10.4862 C.ar    1  UNL1        0.0001
      6 C          62.2879   87.3725   11.0130 C.ar    1  UNL1        0.0000
      7 C          63.0258   87.1559   12.3009 C.ar    1  UNL1        0.0001
      8 C          63.2228   85.7654   12.8277 C.ar    1  UNL1        0.0000
      9 C          63.9607   85.5489   14.1155 C.ar    1  UNL1        0.0000
     10 C          64.5015   86.7228   14.8766 C.ar    1  UNL1        0.0000
     11 C          64.3044   88.1134   14.3499 C.ar    1  UNL1        0.0001
     12 C          63.5666   88.3299   13.0620 C.ar    1  UNL1        0.0031
     13 C          64.9451   91.7819   12.6704 C.2     1  UNL1        0.0421
     14 C          64.8613   92.1180   11.2110 C.2     1  UNL1        0.0048
     15 C          65.8962   93.0054   10.5851 C.ar    1  UNL1        0.0193
     16 C          67.1383   92.4075    9.9937 C.ar    1  UNL1        0.0031
     17 C          68.1732   93.2948    9.3679 C.ar    1  UNL1        0.0207
     18 C          67.9659   94.7800    9.3334 C.ar    1  UNL1        0.0989
     19 N          66.7238   95.3779    9.9248 N.ar    1  UNL1       -0.2423
     20 C          65.6889   94.4906   10.5506 C.ar    1  UNL1        0.0988
@<TRIPOS>BOND
     1     1     2    2
     2     2    13    1
     3    13    14    2
     4    14    15    1
     5    15    16   ar
     6    16    17   ar
     7    17    18   ar
     8    18    19   ar
     9    19    20   ar
    10     2     3    1
    11     3     4   ar
    12     4     5   ar
    13     5     6   ar
    14     6     7   ar
    15     7     8   ar
    16     8     9   ar
    17     9    10   ar
    18    10    11   ar
    19    11    12   ar
    20    20    15   ar
    21    12     3   ar
    22    12     7   ar
@<TRIPOS>MOLECULE
*****
 20 22 0 0 0
SMALL
GASTEIGER

@<TRIPOS>ATOM
      1 O          62.4656   89.7212   14.8012 O.2     1  UNL1       -0.2866
      2 C          63.2770   89.9065   13.5532 C.2     1  UNL1        0.1956
      3 C          62.7248   89.4714   12.2281 C.ar    1  UNL1        0.0390
      4 C          62.2147   90.4935   11.2561 C.ar    1  UNL1        0.0032
      5 C          61.6624   90.0585    9.9310 C.ar    1  UNL1        0.0001
      6 C          61.6203   88.6012    9.5780 C.ar    1  UNL1        0.0000
      7 C          62.1305   87.5790   10.5501 C.ar    1  UNL1        0.0001
      8 C          62.0883   86.1218   10.1971 C.ar    1  UNL1        0.0000
      9 C          62.5985   85.0996   11.1692 C.ar    1  UNL1        0.0000
     10 C          63.1507   85.5347   12.4942 C.ar    1  UNL1        0.0000
     11 C          63.1928   86.9919   12.8472 C.ar    1  UNL1        0.0001
     12 C          62.6827   88.0141   11.8752 C.ar    1  UNL1        0.0031
     13 C          64.6405   90.5268   13.6303 C.2     1  UNL1        0.0421
     14 C          65.0593   91.2661   14.8664 C.2     1  UNL1        0.0048
     15 C          66.4229   91.8865   14.9434 C.ar    1  UNL1        0.0193
     16 C          66.8208   92.6750   16.1559 C.ar    1  UNL1        0.0031
     17 C          68.1843   93.2953   16.2329 C.ar    1  UNL1        0.0207
     18 C          69.1500   93.1271   15.0976 C.ar    1  UNL1        0.0989
     19 N          68.7521   92.3386   13.8851 N.ar    1  UNL1       -0.2423
     20 C          67.3886   91.7183   13.8080 C.ar    1  UNL1        0.0988
@<TRIPOS>BOND
     1     1     2    2
     2     2    13    1
     3    13    14    2
     4    14    15    1
     5    15    16   ar
     6    16    17   ar
     7    17    18   ar
     8    18    19   ar
     9    19    20   ar
    10     2     3    1
    11     3     4   ar
    12     4     5   ar
    13     5     6   ar
    14     6     7   ar
    15     7     8   ar
    16     8     9   ar
    17     9    10   ar
    18    10    11   ar
    19    11    12   ar
    20    20    15   ar
    21    12     3   ar
    22    12     7   ar
@<TRIPOS>MOLECULE
*****
 20 22 0 0 0
SMALL
GASTEIGER

@<TRIPOS>ATOM
      1 O          60.9812   90.6553   11.4390 O.2     1  UNL1       -0.2866
      2 C          62.2270   89.8213   11.4920 C.2     1  UNL1        0.1956
      3 C          63.3133   90.1573   12.4703 C.ar    1  UNL1        0.0390
      4 C          63.4052   89.4180   13.7721 C.ar    1  UNL1        0.0032
      5 C          64.4915   89.7540   14.7504 C.ar    1  UNL1        0.0001
      6 C          65.4860   90.8292   14.4268 C.ar    1  UNL1        0.0000
      7 C          65.3942   91.5686   13.1248 C.ar    1  UNL1        0.0001
      8 C          66.3886   92.6439   12.8012 C.ar    1  UNL1        0.0000
      9 C          66.2968   93.3832   11.4993 C.ar    1  UNL1        0.0000
     10 C          65.2105   93.0472   10.5211 C.ar    1  UNL1        0.0000
     11 C          64.2160   91.9719   10.8447 C.ar    1  UNL1        0.0001
     12 C          64.3078   91.2326   12.1466 C.ar    1  UNL1        0.0031
     13 C          62.3864   88.6515   10.5668 C.2     1  UNL1        0.0421
     14 C          61.2169   88.1669    9.7621 C.2     1  UNL1        0.0048
     15 C          61.3763   86.9970    8.8368 C.ar    1  UNL1        0.0193
     16 C          62.6802   86.2576    8.7806 C.ar    1  UNL1        0.0031
     17 C          62.8396   85.0877    7.8554 C.ar    1  UNL1        0.0207
     18 C          61.6952   84.6573    6.9865 C.ar    1  UNL1        0.0989
     19 N          60.3914   85.3968    7.0428 N.ar    1  UNL1       -0.2423
     20 C          60.2319   86.5666    7.9679 C.ar    1  UNL1        0.0988
@<TRIPOS>BOND
     1     1     2    2
     2     2    13    1
     3    13    14    2
     4    14    15    1
     5    15    16   ar
     6    16    17   ar
     7    17    18   ar
     8    18    19   ar
     9    19    20   ar
    10     2     3    1
    11     3     4   ar
    12     4     5   ar
    13     5     6   ar
    14     6     7   ar
    15     7     8   ar
    16     8     9   ar
    17     9    10   ar
    18    10    11   ar
    19    11    12   ar
    20    20    15   ar
    21    12     3   ar
    22    12     7   ar
