@<TRIPOS>MOLECULE
*****
 25 27 0 0 0
SMALL
GASTEIGER

@<TRIPOS>ATOM
      1 C          59.6391   89.1308    7.3954 C.ar    1  UNL1        0.0002
      2 C          59.3382   87.6647    7.2953 C.ar    1  UNL1        0.0013
      3 C          59.7815   86.7320    8.3832 C.ar    1  UNL1        0.0147
      4 C          60.5259   87.2654    9.5713 C.ar    1  UNL1        0.0505
      5 C          60.8268   88.7315    9.6715 C.ar    1  UNL1        0.0147
      6 C          60.3834   89.6642    8.5835 C.ar    1  UNL1        0.0013
      7 C          60.7903   92.3810    3.5082 C.3     1  UNL1        0.0521
      8 C          59.7714   91.6885    4.3639 C.ar    1  UNL1        0.0594
      9 C          60.2147   90.7559    5.4518 C.ar    1  UNL1        0.0147
     10 C          59.1957   90.0634    6.3075 C.ar    1  UNL1        0.0027
     11 C          57.7334   90.3036    6.0752 C.ar    1  UNL1        0.0207
     12 C          57.2901   91.2362    4.9873 C.ar    1  UNL1        0.0984
     13 N          58.3091   91.9287    4.1316 N.ar    1  UNL1       -0.2481
     14 N          60.9692   86.3328   10.6592 N.am    1  UNL1       -0.2804
     15 C          62.1823   85.4729   10.4618 C.2     1  UNL1        0.2495
     16 O          62.9521   85.5458    9.1765 O.2     1  UNL1       -0.2698
     17 H          60.4640   86.2850   11.5028 H       1  UNL1        0.1552
     18 C          62.6257   84.5403   11.5497 C.ar    1  UNL1        0.0553
     19 C          63.1812   85.0910   12.8295 C.ar    1  UNL1        0.0160
     20 C          63.6246   84.1583   13.9175 C.ar    1  UNL1        0.0587
     21 CL         64.1801   84.7090   15.1973 Cl      1  UNL1       -0.0822
     22 C          63.5124   82.6749   13.7255 C.ar    1  UNL1        0.0228
     23 C          62.9569   82.1242   12.4456 C.ar    1  UNL1        0.0587
     24 CL         62.8447   80.6408   12.2536 Cl      1  UNL1       -0.0822
     25 C          62.5135   83.0568   11.3577 C.ar    1  UNL1        0.0160
@<TRIPOS>BOND
     1     7     8    1
     2     8     9   ar
     3     9    10   ar
     4    10     1    1
     5     1     2   ar
     6     2     3   ar
     7     3     4   ar
     8     4    14    1
     9    14    15   am
    10    15    16    2
    11    15    18    1
    12    18    19   ar
    13    19    20   ar
    14    20    21    1
    15    20    22   ar
    16    22    23   ar
    17    23    24    1
    18    23    25   ar
    19     4     5   ar
    20     5     6   ar
    21    10    11   ar
    22    11    12   ar
    23    12    13   ar
    24    13     8   ar
    25     6     1   ar
    26    25    18   ar
    27    14    17    1
@<TRIPOS>MOLECULE
*****
 25 27 0 0 0
SMALL
GASTEIGER

@<TRIPOS>ATOM
      1 C          59.6381   89.1320    7.3949 C.ar    1  UNL1        0.0002
      2 C          60.3826   89.6656    8.5828 C.ar    1  UNL1        0.0013
      3 C          60.8258   88.7333    9.6710 C.ar    1  UNL1        0.0147
      4 C          60.5247   87.2672    9.5713 C.ar    1  UNL1        0.0505
      5 C          59.7802   86.7335    8.3835 C.ar    1  UNL1        0.0147
      6 C          59.3370   87.6659    7.2952 C.ar    1  UNL1        0.0013
      7 C          60.7898   92.3811    3.5069 C.3     1  UNL1        0.0521
      8 C          59.7708   91.6889    4.3627 C.ar    1  UNL1        0.0594
      9 C          60.2139   90.7565    5.4509 C.ar    1  UNL1        0.0147
     10 C          59.1949   90.0644    6.3067 C.ar    1  UNL1        0.0027
     11 C          57.7326   90.3047    6.0744 C.ar    1  UNL1        0.0207
     12 C          57.2894   91.2371    4.9862 C.ar    1  UNL1        0.0984
     13 N          58.3085   91.9292    4.1304 N.ar    1  UNL1       -0.2481
     14 N          60.9679   86.3348   10.6595 N.am    1  UNL1       -0.2804
     15 C          62.1806   85.4743   10.4621 C.2     1  UNL1        0.2495
     16 O          62.9501   85.5462    9.1766 O.2     1  UNL1       -0.2698
     17 H          60.4629   86.2876   11.5033 H       1  UNL1        0.1552
     18 C          62.6239   84.5420   11.5503 C.ar    1  UNL1        0.0553
     19 C          62.5124   83.0585   11.3585 C.ar    1  UNL1        0.0160
     20 C          62.9557   82.1261   12.4468 C.ar    1  UNL1        0.0587
     21 CL         62.8442   80.6426   12.2549 Cl      1  UNL1       -0.0822
     22 C          63.5104   82.6773   13.7268 C.ar    1  UNL1        0.0228
     23 C          63.6219   84.1608   13.9186 C.ar    1  UNL1        0.0587
     24 CL         64.1766   84.7119   15.1986 Cl      1  UNL1       -0.0822
     25 C          63.1786   85.0931   12.8304 C.ar    1  UNL1        0.0160
@<TRIPOS>BOND
     1     7     8    1
     2     8     9   ar
     3     9    10   ar
     4    10     1    1
     5     1     2   ar
     6     2     3   ar
     7     3     4   ar
     8     4    14    1
     9    14    15   am
    10    15    16    2
    11    15    18    1
    12    18    19   ar
    13    19    20   ar
    14    20    21    1
    15    20    22   ar
    16    22    23   ar
    17    23    24    1
    18    23    25   ar
    19     4     5   ar
    20     5     6   ar
    21    10    11   ar
    22    11    12   ar
    23    12    13   ar
    24    13     8   ar
    25     6     1   ar
    26    25    18   ar
    27    14    17    1
@<TRIPOS>MOLECULE
*****
 25 27 0 0 0
SMALL
GASTEIGER

@<TRIPOS>ATOM
      1 C          59.7694   89.0559    7.4935 C.ar    1  UNL1        0.0002
      2 C          60.5678   89.5640    8.6573 C.ar    1  UNL1        0.0013
      3 C          60.9831   88.6236    9.7496 C.ar    1  UNL1        0.0147
      4 C          60.6000   87.1751    9.6782 C.ar    1  UNL1        0.0505
      5 C          59.8016   86.6669    8.5144 C.ar    1  UNL1        0.0147
      6 C          59.3863   87.6074    7.4221 C.ar    1  UNL1        0.0013
      7 C          56.0286   91.4814    4.8245 C.3     1  UNL1        0.0521
      8 C          57.4837   91.2090    5.0667 C.ar    1  UNL1        0.0594
      9 C          57.8990   90.2687    6.1590 C.ar    1  UNL1        0.0147
     10 C          59.3541   89.9963    6.4012 C.ar    1  UNL1        0.0027
     11 C          60.3938   90.6643    5.5511 C.ar    1  UNL1        0.0207
     12 C          59.9784   91.6047    4.4588 C.ar    1  UNL1        0.0984
     13 N          58.5234   91.8771    4.2166 N.ar    1  UNL1       -0.2481
     14 N          61.0153   86.2347   10.7705 N.am    1  UNL1       -0.2804
     15 C          62.2014   85.3371   10.5768 C.2     1  UNL1        0.2495
     16 O          62.9722   85.3799    9.2907 O.2     1  UNL1       -0.2698
     17 H          60.5094   86.2066   11.6146 H       1  UNL1        0.1552
     18 C          62.6167   84.3968   11.6691 C.ar    1  UNL1        0.0553
     19 C          63.1500   84.9382   12.9623 C.ar    1  UNL1        0.0160
     20 C          63.5653   83.9977   14.0546 C.ar    1  UNL1        0.0587
     21 CL         64.0987   84.5391   15.3479 Cl      1  UNL1       -0.0822
     22 C          63.4473   82.5159   13.8537 C.ar    1  UNL1        0.0228
     23 C          62.9140   81.9745   12.5605 C.ar    1  UNL1        0.0587
     24 CL         62.7959   80.4928   12.3596 Cl      1  UNL1       -0.0822
     25 C          62.4986   82.9149   11.4682 C.ar    1  UNL1        0.0160
@<TRIPOS>BOND
     1     7     8    1
     2     8     9   ar
     3     9    10   ar
     4    10     1    1
     5     1     2   ar
     6     2     3   ar
     7     3     4   ar
     8     4    14    1
     9    14    15   am
    10    15    16    2
    11    15    18    1
    12    18    19   ar
    13    19    20   ar
    14    20    21    1
    15    20    22   ar
    16    22    23   ar
    17    23    24    1
    18    23    25   ar
    19     4     5   ar
    20     5     6   ar
    21    10    11   ar
    22    11    12   ar
    23    12    13   ar
    24    13     8   ar
    25     6     1   ar
    26    25    18   ar
    27    14    17    1
@<TRIPOS>MOLECULE
*****
 25 27 0 0 0
SMALL
GASTEIGER

@<TRIPOS>ATOM
      1 C          64.5288   89.7476   13.6679 C.ar    1  UNL1        0.0002
      2 C          63.6904   89.5073   12.4476 C.ar    1  UNL1        0.0013
      3 C          63.1199   88.1449   12.1860 C.ar    1  UNL1        0.0147
      4 C          63.3880   87.0228   13.1447 C.ar    1  UNL1        0.0505
      5 C          64.2264   87.2631   14.3650 C.ar    1  UNL1        0.0147
      6 C          64.7969   88.6256   14.6266 C.ar    1  UNL1        0.0013
      7 C          66.2341   94.3272   11.9017 C.3     1  UNL1        0.0521
      8 C          65.9519   93.3998   13.0464 C.ar    1  UNL1        0.0594
      9 C          65.3815   92.0374   12.7848 C.ar    1  UNL1        0.0147
     10 C          65.0993   91.1101   13.9296 C.ar    1  UNL1        0.0027
     11 C          65.3875   91.5451   15.3358 C.ar    1  UNL1        0.0207
     12 C          65.9579   92.9075   15.5974 C.ar    1  UNL1        0.0984
     13 N          66.2401   93.8349   14.4527 N.ar    1  UNL1       -0.2481
     14 N          62.8175   85.6604   12.8831 N.am    1  UNL1       -0.2804
     15 C          63.6529   84.4383   13.1255 C.2     1  UNL1        0.2495
     16 O          65.0586   84.5786   13.6295 O.2     1  UNL1       -0.2698
     17 H          61.8949   85.5683   12.5522 H       1  UNL1        0.1552
     18 C          63.0824   83.0760   12.8638 C.ar    1  UNL1        0.0553
     19 C          62.1340   82.4583   13.8481 C.ar    1  UNL1        0.0160
     20 C          61.5635   81.0958   13.5864 C.ar    1  UNL1        0.0587
     21 CL         60.6150   80.4782   14.5708 Cl      1  UNL1       -0.0822
     22 C          61.9416   80.3511   12.3405 C.ar    1  UNL1        0.0228
     23 C          62.8900   80.9688   11.3562 C.ar    1  UNL1        0.0587
     24 CL         63.2681   80.2241   10.1102 Cl      1  UNL1       -0.0822
     25 C          63.4605   82.3312   11.6178 C.ar    1  UNL1        0.0160
@<TRIPOS>BOND
     1     7     8    1
     2     8     9   ar
     3     9    10   ar
     4    10     1    1
     5     1     2   ar
     6     2     3   ar
     7     3     4   ar
     8     4    14    1
     9    14    15   am
    10    15    16    2
    11    15    18    1
    12    18    19   ar
    13    19    20   ar
    14    20    21    1
    15    20    22   ar
    16    22    23   ar
    17    23    24    1
    18    23    25   ar
    19     4     5   ar
    20     5     6   ar
    21    10    11   ar
    22    11    12   ar
    23    12    13   ar
    24    13     8   ar
    25     6     1   ar
    26    25    18   ar
    27    14    17    1
@<TRIPOS>MOLECULE
*****
 25 27 0 0 0
SMALL
GASTEIGER

@<TRIPOS>ATOM
      1 C          64.5239   89.7760   13.6611 C.ar    1  UNL1        0.0002
      2 C          63.6939   89.5342   12.4353 C.ar    1  UNL1        0.0013
      3 C          63.1262   88.1712   12.1707 C.ar    1  UNL1        0.0147
      4 C          63.3885   87.0500   13.1321 C.ar    1  UNL1        0.0505
      5 C          64.2185   87.2918   14.3579 C.ar    1  UNL1        0.0147
      6 C          64.7862   88.6548   14.6224 C.ar    1  UNL1        0.0013
      7 C          66.2642   94.3449   11.9014 C.3     1  UNL1        0.0521
      8 C          65.9618   93.4234   13.0458 C.ar    1  UNL1        0.0594
      9 C          65.3941   92.0605   12.7813 C.ar    1  UNL1        0.0147
     10 C          65.0916   91.1390   13.9256 C.ar    1  UNL1        0.0027
     11 C          65.3568   91.5805   15.3344 C.ar    1  UNL1        0.0207
     12 C          65.9245   92.9435   15.5988 C.ar    1  UNL1        0.0984
     13 N          66.2270   93.8650   14.4545 N.ar    1  UNL1       -0.2481
     14 N          62.8208   85.6870   12.8675 N.am    1  UNL1       -0.2804
     15 C          63.6466   84.4648   13.1399 C.2     1  UNL1        0.2495
     16 O          65.0401   84.6055   13.6767 O.2     1  UNL1       -0.2698
     17 H          61.9061   85.5947   12.5152 H       1  UNL1        0.1552
     18 C          63.0789   83.1018   12.8753 C.ar    1  UNL1        0.0553
     19 C          63.4485   82.3657   11.6217 C.ar    1  UNL1        0.0160
     20 C          62.8808   81.0027   11.3572 C.ar    1  UNL1        0.0587
     21 CL         63.2505   80.2666   10.1036 Cl      1  UNL1       -0.0822
     22 C          61.9434   80.3759   12.3463 C.ar    1  UNL1        0.0228
     23 C          61.5737   81.1120   13.5999 C.ar    1  UNL1        0.0587
     24 CL         60.6363   80.4851   14.5889 Cl      1  UNL1       -0.0822
     25 C          62.1414   82.4749   13.8644 C.ar    1  UNL1        0.0160
@<TRIPOS>BOND
     1     7     8    1
     2     8     9   ar
     3     9    10   ar
     4    10     1    1
     5     1     2   ar
     6     2     3   ar
     7     3     4   ar
     8     4    14    1
     9    14    15   am
    10    15    16    2
    11    15    18    1
    12    18    19   ar
    13    19    20   ar
    14    20    21    1
    15    20    22   ar
    16    22    23   ar
    17    23    24    1
    18    23    25   ar
    19     4     5   ar
    20     5     6   ar
    21    10    11   ar
    22    11    12   ar
    23    12    13   ar
    24    13     8   ar
    25     6     1   ar
    26    25    18   ar
    27    14    17    1
@<TRIPOS>MOLECULE
*****
 25 27 0 0 0
SMALL
GASTEIGER

@<TRIPOS>ATOM
      1 C          62.2301   86.2394   11.2476 C.ar    1  UNL1        0.0002
      2 C          62.4891   87.6975   11.4862 C.ar    1  UNL1        0.0013
      3 C          61.9670   88.7198   10.5207 C.ar    1  UNL1        0.0147
      4 C          61.1859   88.2840    9.3165 C.ar    1  UNL1        0.0505
      5 C          60.9269   86.8259    9.0779 C.ar    1  UNL1        0.0147
      6 C          61.4490   85.8036   10.0435 C.ar    1  UNL1        0.0013
      7 C          62.8055   81.2754   12.6716 C.3     1  UNL1        0.0521
      8 C          63.0399   82.7351   12.9252 C.ar    1  UNL1        0.0594
      9 C          62.5178   83.7574   11.9597 C.ar    1  UNL1        0.0147
     10 C          62.7522   85.2171   12.2133 C.ar    1  UNL1        0.0027
     11 C          63.5087   85.6545   13.4324 C.ar    1  UNL1        0.0207
     12 C          64.0308   84.6322   14.3979 C.ar    1  UNL1        0.0984
     13 N          63.7964   83.1725   14.1443 N.ar    1  UNL1       -0.2481
     14 N          60.6638   89.3063    8.3509 N.am    1  UNL1       -0.2804
     15 C          59.7641   88.8856    7.2269 C.2     1  UNL1        0.2495
     16 O          59.3864   87.4427    7.0684 O.2     1  UNL1       -0.2698
     17 H          60.9117   90.2534    8.4550 H       1  UNL1        0.1552
     18 C          59.2420   89.9079    6.2614 C.ar    1  UNL1        0.0553
     19 C          60.1974   90.7051    5.4237 C.ar    1  UNL1        0.0160
     20 C          59.6752   91.7274    4.4581 C.ar    1  UNL1        0.0587
     21 CL         60.6306   92.5246    3.6204 Cl      1  UNL1       -0.0822
     22 C          58.1978   91.9525    4.3303 C.ar    1  UNL1        0.0228
     23 C          57.2424   91.1553    5.1680 C.ar    1  UNL1        0.0587
     24 CL         55.7649   91.3804    5.0401 Cl      1  UNL1       -0.0822
     25 C          57.7644   90.1331    6.1335 C.ar    1  UNL1        0.0160
@<TRIPOS>BOND
     1     7     8    1
     2     8     9   ar
     3     9    10   ar
     4    10     1    1
     5     1     2   ar
     6     2     3   ar
     7     3     4   ar
     8     4    14    1
     9    14    15   am
    10    15    16    2
    11    15    18    1
    12    18    19   ar
    13    19    20   ar
    14    20    21    1
    15    20    22   ar
    16    22    23   ar
    17    23    24    1
    18    23    25   ar
    19     4     5   ar
    20     5     6   ar
    21    10    11   ar
    22    11    12   ar
    23    12    13   ar
    24    13     8   ar
    25     6     1   ar
    26    25    18   ar
    27    14    17    1
@<TRIPOS>MOLECULE
*****
 25 27 0 0 0
SMALL
GASTEIGER

@<TRIPOS>ATOM
      1 C          62.2762   86.1545   11.2607 C.ar    1  UNL1        0.0002
      2 C          62.4190   87.6165   11.5641 C.ar    1  UNL1        0.0013
      3 C          61.9220   88.6378   10.5844 C.ar    1  UNL1        0.0147
      4 C          61.2822   88.1972    9.3012 C.ar    1  UNL1        0.0505
      5 C          61.1395   86.7351    8.9978 C.ar    1  UNL1        0.0147
      6 C          61.6365   85.7138    9.9775 C.ar    1  UNL1        0.0013
      7 C          62.7716   81.1947   12.7287 C.3     1  UNL1        0.0521
      8 C          63.0209   82.6532   12.9744 C.ar    1  UNL1        0.0594
      9 C          62.5239   83.6746   11.9947 C.ar    1  UNL1        0.0147
     10 C          62.7733   85.1331   12.2405 C.ar    1  UNL1        0.0027
     11 C          63.5197   85.5704   13.4659 C.ar    1  UNL1        0.0207
     12 C          64.0167   84.5490   14.4456 C.ar    1  UNL1        0.0984
     13 N          63.7673   83.0905   14.1998 N.ar    1  UNL1       -0.2481
     14 N          60.7852   89.2185    8.3215 N.am    1  UNL1       -0.2804
     15 C          59.7506   88.8400    7.3035 C.2     1  UNL1        0.2495
     16 O          59.2130   87.4402    7.2651 O.2     1  UNL1       -0.2698
     17 H          61.1380   90.1372    8.3467 H       1  UNL1        0.1552
     18 C          59.2536   89.8613    6.3238 C.ar    1  UNL1        0.0553
     19 C          57.7804   90.0979    6.1695 C.ar    1  UNL1        0.0160
     20 C          57.2835   91.1193    5.1897 C.ar    1  UNL1        0.0587
     21 CL         55.8103   91.3559    5.0354 Cl      1  UNL1       -0.0822
     22 C          58.2596   91.9040    4.3644 C.ar    1  UNL1        0.0228
     23 C          59.7328   91.6675    4.5187 C.ar    1  UNL1        0.0587
     24 CL         60.7089   92.4522    3.6934 Cl      1  UNL1       -0.0822
     25 C          60.2298   90.6461    5.4984 C.ar    1  UNL1        0.0160
@<TRIPOS>BOND
     1     7     8    1
     2     8     9   ar
     3     9    10   ar
     4    10     1    1
     5     1     2   ar
     6     2     3   ar
     7     3     4   ar
     8     4    14    1
     9    14    15   am
    10    15    16    2
    11    15    18    1
    12    18    19   ar
    13    19    20   ar
    14    20    21    1
    15    20    22   ar
    16    22    23   ar
    17    23    24    1
    18    23    25   ar
    19     4     5   ar
    20     5     6   ar
    21    10    11   ar
    22    11    12   ar
    23    12    13   ar
    24    13     8   ar
    25     6     1   ar
    26    25    18   ar
    27    14    17    1
@<TRIPOS>MOLECULE
*****
 25 27 0 0 0
SMALL
GASTEIGER

@<TRIPOS>ATOM
      1 C          63.0820   83.6225   14.0774 C.ar    1  UNL1        0.0002
      2 C          63.7186   84.0588   15.3636 C.ar    1  UNL1        0.0013
      3 C          64.2549   85.4530   15.5000 C.ar    1  UNL1        0.0147
      4 C          64.1546   86.4109   14.3501 C.ar    1  UNL1        0.0505
      5 C          63.5180   85.9747   13.0638 C.ar    1  UNL1        0.0147
      6 C          62.9817   84.5804   12.9275 C.ar    1  UNL1        0.0013
      7 C          59.1165   80.2776   14.3720 C.3     1  UNL1        0.0521
      8 C          60.5630   80.5559   14.0884 C.ar    1  UNL1        0.0594
      9 C          61.0993   81.9500   14.2247 C.ar    1  UNL1        0.0147
     10 C          62.5457   82.2283   13.9411 C.ar    1  UNL1        0.0027
     11 C          63.4558   81.1123   13.5212 C.ar    1  UNL1        0.0207
     12 C          62.9195   79.7182   13.3849 C.ar    1  UNL1        0.0984
     13 N          61.4731   79.4399   13.6685 N.ar    1  UNL1       -0.2481
     14 N          64.6909   87.8051   14.4864 N.am    1  UNL1       -0.2804
     15 C          64.2015   88.8896   13.5730 C.2     1  UNL1        0.2495
     16 O          63.1758   88.5800   12.5233 O.2     1  UNL1       -0.2698
     17 H          65.3641   88.0084   15.1754 H       1  UNL1        0.1552
     18 C          64.7378   90.2838   13.7094 C.ar    1  UNL1        0.0553
     19 C          64.8050   91.1822   12.5100 C.ar    1  UNL1        0.0160
     20 C          65.3414   92.5764   12.6464 C.ar    1  UNL1        0.0587
     21 CL         65.4086   93.4748   11.4471 Cl      1  UNL1       -0.0822
     22 C          65.8104   93.0722   13.9821 C.ar    1  UNL1        0.0228
     23 C          65.7432   92.1738   15.1815 C.ar    1  UNL1        0.0587
     24 CL         66.2122   92.6696   16.5172 Cl      1  UNL1       -0.0822
     25 C          65.2069   90.7797   15.0451 C.ar    1  UNL1        0.0160
@<TRIPOS>BOND
     1     7     8    1
     2     8     9   ar
     3     9    10   ar
     4    10     1    1
     5     1     2   ar
     6     2     3   ar
     7     3     4   ar
     8     4    14    1
     9    14    15   am
    10    15    16    2
    11    15    18    1
    12    18    19   ar
    13    19    20   ar
    14    20    21    1
    15    20    22   ar
    16    22    23   ar
    17    23    24    1
    18    23    25   ar
    19     4     5   ar
    20     5     6   ar
    21    10    11   ar
    22    11    12   ar
    23    12    13   ar
    24    13     8   ar
    25     6     1   ar
    26    25    18   ar
    27    14    17    1
@<TRIPOS>MOLECULE
*****
 25 27 0 0 0
SMALL
GASTEIGER

@<TRIPOS>ATOM
      1 C          63.0789   83.6186   14.0663 C.ar    1  UNL1        0.0002
      2 C          62.9926   84.5748   12.9138 C.ar    1  UNL1        0.0013
      3 C          63.5319   85.9675   13.0527 C.ar    1  UNL1        0.0147
      4 C          64.1575   86.4042   14.3442 C.ar    1  UNL1        0.0505
      5 C          64.2438   85.4481   15.4968 C.ar    1  UNL1        0.0147
      6 C          63.7045   84.0553   15.3578 C.ar    1  UNL1        0.0013
      7 C          59.1163   80.2737   14.3967 C.3     1  UNL1        0.0521
      8 C          60.5583   80.5534   14.0925 C.ar    1  UNL1        0.0594
      9 C          61.0976   81.9461   14.2315 C.ar    1  UNL1        0.0147
     10 C          62.5396   82.2258   13.9273 C.ar    1  UNL1        0.0027
     11 C          63.4422   81.1128   13.4842 C.ar    1  UNL1        0.0207
     12 C          62.9028   79.7201   13.3452 C.ar    1  UNL1        0.0984
     13 N          61.4609   79.4404   13.6494 N.ar    1  UNL1       -0.2481
     14 N          64.6968   87.7970   14.4832 N.am    1  UNL1       -0.2804
     15 C          64.1891   88.8904   13.5905 C.2     1  UNL1        0.2495
     16 O          63.1421   88.5910   12.5590 O.2     1  UNL1       -0.2698
     17 H          65.3840   87.9935   15.1602 H       1  UNL1        0.1552
     18 C          64.7284   90.2831   13.7295 C.ar    1  UNL1        0.0553
     19 C          65.1847   90.7805   15.0690 C.ar    1  UNL1        0.0160
     20 C          65.7241   92.1734   15.2079 C.ar    1  UNL1        0.0587
     21 CL         66.1804   92.6708   16.5474 Cl      1  UNL1       -0.0822
     22 C          65.8070   93.0687   14.0073 C.ar    1  UNL1        0.0228
     23 C          65.3507   92.5713   12.6678 C.ar    1  UNL1        0.0587
     24 CL         65.4336   93.4666   11.4672 Cl      1  UNL1       -0.0822
     25 C          64.8114   91.1785   12.5288 C.ar    1  UNL1        0.0160
@<TRIPOS>BOND
     1     7     8    1
     2     8     9   ar
     3     9    10   ar
     4    10     1    1
     5     1     2   ar
     6     2     3   ar
     7     3     4   ar
     8     4    14    1
     9    14    15   am
    10    15    16    2
    11    15    18    1
    12    18    19   ar
    13    19    20   ar
    14    20    21    1
    15    20    22   ar
    16    22    23   ar
    17    23    24    1
    18    23    25   ar
    19     4     5   ar
    20     5     6   ar
    21    10    11   ar
    22    11    12   ar
    23    12    13   ar
    24    13     8   ar
    25     6     1   ar
    26    25    18   ar
    27    14    17    1
