@<TRIPOS>MOLECULE
*****
 19 20 0 0 0
SMALL
GASTEIGER

@<TRIPOS>ATOM
      1 C          63.4532   90.5576   11.8659 C.2     1  UNL1        0.0033
      2 C          64.2432   91.5834   11.1085 C.2     1  UNL1        0.0435
      3 C          60.8947   87.5968    9.6438 C.ar    1  UNL1        0.1448
      4 C          60.8293   89.0544    9.2958 C.ar    1  UNL1        0.0374
      5 C          61.6822   90.0413   10.0365 C.ar    1  UNL1        0.0031
      6 C          62.6004   89.5707   11.1252 C.ar    1  UNL1        0.0008
      7 C          62.6658   88.1131   11.4732 C.ar    1  UNL1        0.0097
      8 C          61.8130   87.1262   10.7325 C.ar    1  UNL1        0.0685
      9 BR         61.8784   85.6685   11.0805 Br      1  UNL1       -0.0458
     10 C          59.0691   87.0885    7.8666 C.3     1  UNL1        0.2525
     11 O          60.0419   86.6099    8.9031 O.3     1  UNL1       -0.4709
     12 C          65.0960   92.5703   11.8492 C.2     1  UNL1        0.2111
     13 O          65.1662   92.5256   13.3468 O.2     1  UNL1       -0.2850
     14 C          65.8787   93.6020   11.0921 C.ar    1  UNL1        0.0961
     15 C          66.8609   93.3310    9.9912 C.ar    1  UNL1        0.0218
     16 C          67.4058   94.6472    9.5218 C.ar    1  UNL1        0.0200
     17 C          66.7605   95.7318   10.3326 C.ar    1  UNL1        0.0725
     18 N          65.8167   95.0858   11.3031 N.ar    1  UNL1       -0.3495
     19 H          65.2551   95.5535   11.9627 H       1  UNL1        0.1661
@<TRIPOS>BOND
     1    10    11    1
     2    11     3    1
     3     3     4   ar
     4     4     5   ar
     5     5     6   ar
     6     6     1    1
     7     1     2    2
     8     2    12    1
     9    12    13    2
    10    12    14    1
    11    14    15   ar
    12    15    16   ar
    13    16    17   ar
    14    17    18   ar
    15     6     7   ar
    16     7     8   ar
    17     8     9    1
    18     8     3   ar
    19    18    14   ar
    20    18    19    1
@<TRIPOS>MOLECULE
*****
 19 20 0 0 0
SMALL
GASTEIGER

@<TRIPOS>ATOM
      1 C          62.5003   89.6648   11.7898 C.2     1  UNL1        0.0033
      2 C          62.4909   88.7008   10.6406 C.2     1  UNL1        0.0435
      3 C          65.6607   92.8599   12.0204 C.ar    1  UNL1        0.1448
      4 C          64.9186   92.6303   10.7372 C.ar    1  UNL1        0.0374
      5 C          63.8651   91.5653   10.6604 C.ar    1  UNL1        0.0031
      6 C          63.5538   90.7298   11.8666 C.ar    1  UNL1        0.0008
      7 C          64.2959   90.9595   13.1498 C.ar    1  UNL1        0.0097
      8 C          65.3494   92.0245   13.2266 C.ar    1  UNL1        0.0685
      9 BR         66.0915   92.2541   14.5098 Br      1  UNL1       -0.0458
     10 C          66.4635   95.2731   11.4891 C.3     1  UNL1        0.2525
     11 O          66.7142   93.9250   12.0972 O.3     1  UNL1       -0.4709
     12 C          61.4374   87.6358   10.5638 C.2     1  UNL1        0.2111
     13 O          61.2757   86.6582   11.6899 O.2     1  UNL1       -0.2850
     14 C          60.5457   87.5483    9.3607 C.ar    1  UNL1        0.0961
     15 C          60.1712   86.2929    8.6302 C.ar    1  UNL1        0.0218
     16 C          59.2660   86.6695    7.4950 C.ar    1  UNL1        0.0200
     17 C          59.0810   88.1578    7.5240 C.ar    1  UNL1        0.0725
     18 N          59.8719   88.7009    8.6770 N.ar    1  UNL1       -0.3495
     19 H          59.9372   89.6476    8.9391 H       1  UNL1        0.1661
@<TRIPOS>BOND
     1    10    11    1
     2    11     3    1
     3     3     4   ar
     4     4     5   ar
     5     5     6   ar
     6     6     1    1
     7     1     2    2
     8     2    12    1
     9    12    13    2
    10    12    14    1
    11    14    15   ar
    12    15    16   ar
    13    16    17   ar
    14    17    18   ar
    15     6     7   ar
    16     7     8   ar
    17     8     9    1
    18     8     3   ar
    19    18    14   ar
    20    18    19    1
@<TRIPOS>MOLECULE
*****
 19 20 0 0 0
SMALL
GASTEIGER

@<TRIPOS>ATOM
      1 C          62.5401   84.9039   11.4086 C.2     1  UNL1        0.0033
      2 C          63.1796   85.1727   12.7385 C.2     1  UNL1        0.0435
      3 C          60.7575   88.2916    9.0432 C.ar    1  UNL1        0.1448
      4 C          60.5357   86.8738    8.6066 C.ar    1  UNL1        0.0374
      5 C          61.1299   85.7446    9.3951 C.ar    1  UNL1        0.0031
      6 C          61.9459   86.0331   10.6201 C.ar    1  UNL1        0.0008
      7 C          62.1677   87.4509   11.0567 C.ar    1  UNL1        0.0097
      8 C          61.5735   88.5801   10.2682 C.ar    1  UNL1        0.0685
      9 BR         61.7953   89.9980   10.7049 Br      1  UNL1       -0.0458
     10 C          59.3187   89.1311    7.0494 C.3     1  UNL1        0.2525
     11 O          60.1633   89.4208    8.2547 O.3     1  UNL1       -0.4709
     12 C          63.7738   84.0435   13.5270 C.2     1  UNL1        0.2111
     13 O          65.0556   84.2468   14.2791 O.2     1  UNL1       -0.2850
     14 C          63.0861   82.7108   13.5635 C.ar    1  UNL1        0.0961
     15 C          63.3684   81.5481   12.6588 C.ar    1  UNL1        0.0218
     16 C          62.4523   80.4256   13.0471 C.ar    1  UNL1        0.0200
     17 C          61.6038   80.8947   14.1918 C.ar    1  UNL1        0.0725
     18 N          61.9956   82.3070   14.5108 N.ar    1  UNL1       -0.3495
     19 H          61.6054   82.8701   15.2179 H       1  UNL1        0.1661
@<TRIPOS>BOND
     1    10    11    1
     2    11     3    1
     3     3     4   ar
     4     4     5   ar
     5     5     6   ar
     6     6     1    1
     7     1     2    2
     8     2    12    1
     9    12    13    2
    10    12    14    1
    11    14    15   ar
    12    15    16   ar
    13    16    17   ar
    14    17    18   ar
    15     6     7   ar
    16     7     8   ar
    17     8     9    1
    18     8     3   ar
    19    18    14   ar
    20    18    19    1
@<TRIPOS>MOLECULE
*****
 19 20 0 0 0
SMALL
GASTEIGER

@<TRIPOS>ATOM
      1 C          63.5527   90.8521   12.9990 C.2     1  UNL1        0.0033
      2 C          63.7368   90.3746   14.4090 C.2     1  UNL1        0.0435
      3 C          61.8293   88.0880    9.8943 C.ar    1  UNL1        0.1448
      4 C          61.8450   89.5686    9.6545 C.ar    1  UNL1        0.0374
      5 C          62.4195   90.4899   10.6894 C.ar    1  UNL1        0.0031
      6 C          62.9782   89.9308   11.9641 C.ar    1  UNL1        0.0008
      7 C          62.9625   88.4502   12.2040 C.ar    1  UNL1        0.0097
      8 C          62.3881   87.5288   11.1691 C.ar    1  UNL1        0.0685
      9 BR         62.3724   86.0481   11.4090 Br      1  UNL1       -0.0458
     10 C          59.7690   87.0823    8.6722 C.3     1  UNL1        0.2525
     11 O          61.2548   87.1666    8.8594 O.3     1  UNL1       -0.4709
     12 C          64.3113   91.2960   15.4439 C.2     1  UNL1        0.2111
     13 O          63.4979   91.6735   16.6464 O.2     1  UNL1       -0.2850
     14 C          65.6992   91.8399   15.2763 C.ar    1  UNL1        0.0961
     15 C          66.7351   91.3327   14.3173 C.ar    1  UNL1        0.0218
     16 C          67.9709   92.1658   14.4865 C.ar    1  UNL1        0.0200
     17 C          67.6988   93.1879   15.5502 C.ar    1  UNL1        0.0725
     18 N          66.2948   92.9865   16.0383 N.ar    1  UNL1       -0.3495
     19 H          65.8435   93.5142   16.7362 H       1  UNL1        0.1661
@<TRIPOS>BOND
     1    10    11    1
     2    11     3    1
     3     3     4   ar
     4     4     5   ar
     5     5     6   ar
     6     6     1    1
     7     1     2    2
     8     2    12    1
     9    12    13    2
    10    12    14    1
    11    14    15   ar
    12    15    16   ar
    13    16    17   ar
    14    17    18   ar
    15     6     7   ar
    16     7     8   ar
    17     8     9    1
    18     8     3   ar
    19    18    14   ar
    20    18    19    1
@<TRIPOS>MOLECULE
*****
 19 20 0 0 0
SMALL
GASTEIGER

@<TRIPOS>ATOM
      1 C          62.7100   90.3007   12.0666 C.2     1  UNL1        0.0033
      2 C          62.2658   90.4716   10.6441 C.2     1  UNL1        0.0435
      3 C          66.4842   92.2889   13.4993 C.ar    1  UNL1        0.1448
      4 C          65.8600   91.1921   14.3100 C.ar    1  UNL1        0.0374
      5 C          64.6019   90.5294   13.8324 C.ar    1  UNL1        0.0031
      6 C          63.9681   90.9635   12.5442 C.ar    1  UNL1        0.0008
      7 C          64.5922   92.0603   11.7335 C.ar    1  UNL1        0.0097
      8 C          65.8503   92.7231   12.2110 C.ar    1  UNL1        0.0685
      9 BR         66.4745   93.8200   11.4003 Br      1  UNL1       -0.0458
     10 C          67.8425   93.4390   15.3920 C.3     1  UNL1        0.2525
     11 O          67.7422   92.9517   13.9769 O.3     1  UNL1       -0.4709
     12 C          61.0077   89.8089   10.1665 C.2     1  UNL1        0.2111
     13 O          59.6930   90.5211   10.2858 O.2     1  UNL1       -0.2850
     14 C          61.0644   88.4338    9.5697 C.ar    1  UNL1        0.0961
     15 C          62.2142   87.4758    9.6701 C.ar    1  UNL1        0.0218
     16 C          61.8418   86.2253    8.9302 C.ar    1  UNL1        0.0200
     17 C          60.4617   86.4106    8.3723 C.ar    1  UNL1        0.0725
     18 N          59.9813   87.7755    8.7676 N.ar    1  UNL1       -0.3495
     19 H          59.1083   88.1699    8.5404 H       1  UNL1        0.1661
@<TRIPOS>BOND
     1    10    11    1
     2    11     3    1
     3     3     4   ar
     4     4     5   ar
     5     5     6   ar
     6     6     1    1
     7     1     2    2
     8     2    12    1
     9    12    13    2
    10    12    14    1
    11    14    15   ar
    12    15    16   ar
    13    16    17   ar
    14    17    18   ar
    15     6     7   ar
    16     7     8   ar
    17     8     9    1
    18     8     3   ar
    19    18    14   ar
    20    18    19    1
@<TRIPOS>MOLECULE
*****
 19 20 0 0 0
SMALL
GASTEIGER

@<TRIPOS>ATOM
      1 C          63.0638   89.7519   12.3052 C.2     1  UNL1        0.0033
      2 C          62.4883   89.0759   11.0961 C.2     1  UNL1        0.0435
      3 C          65.8459   93.2545   11.8139 C.ar    1  UNL1        0.1448
      4 C          65.0420   92.7657   10.6457 C.ar    1  UNL1        0.0374
      5 C          64.1146   91.5981   10.8095 C.ar    1  UNL1        0.0031
      6 C          63.9912   90.9195   12.1414 C.ar    1  UNL1        0.0008
      7 C          64.7951   91.4083   13.3096 C.ar    1  UNL1        0.0097
      8 C          65.7225   92.5758   13.1458 C.ar    1  UNL1        0.0685
      9 BR         66.5264   93.0647   14.3141 Br      1  UNL1       -0.0458
     10 C          66.8768   95.1176   10.3253 C.3     1  UNL1        0.2525
     11 O          66.7733   94.4221   11.6502 O.3     1  UNL1       -0.4709
     12 C          61.5610   87.9083   11.2599 C.2     1  UNL1        0.2111
     13 O          60.1004   88.1401   11.5108 O.2     1  UNL1       -0.2850
     14 C          62.0942   86.5090   11.1727 C.ar    1  UNL1        0.0961
     15 C          62.4423   85.7751    9.9116 C.ar    1  UNL1        0.0218
     16 C          62.9362   84.4104   10.2907 C.ar    1  UNL1        0.0200
     17 C          62.8933   84.3009   11.7861 C.ar    1  UNL1        0.0725
     18 N          62.3729   85.5978   12.3311 N.ar    1  UNL1       -0.3495
     19 H          62.2380   85.8132   13.2823 H       1  UNL1        0.1661
@<TRIPOS>BOND
     1    10    11    1
     2    11     3    1
     3     3     4   ar
     4     4     5   ar
     5     5     6   ar
     6     6     1    1
     7     1     2    2
     8     2    12    1
     9    12    13    2
    10    12    14    1
    11    14    15   ar
    12    15    16   ar
    13    16    17   ar
    14    17    18   ar
    15     6     7   ar
    16     7     8   ar
    17     8     9    1
    18     8     3   ar
    19    18    14   ar
    20    18    19    1
@<TRIPOS>MOLECULE
*****
 19 20 0 0 0
SMALL
GASTEIGER

@<TRIPOS>ATOM
      1 C          63.8585   89.2353   14.1811 C.2     1  UNL1        0.0033
      2 C          64.6627   88.0550   14.6393 C.2     1  UNL1        0.0435
      3 C          65.9377   93.0207   12.9173 C.ar    1  UNL1        0.1448
      4 C          64.9677   92.3520   11.9890 C.ar    1  UNL1        0.0374
      5 C          64.2746   91.0902   12.4102 C.ar    1  UNL1        0.0031
      6 C          64.5515   90.4971   13.7599 C.ar    1  UNL1        0.0008
      7 C          65.5215   91.1658   14.6882 C.ar    1  UNL1        0.0097
      8 C          66.2146   92.4277   14.2669 C.ar    1  UNL1        0.0685
      9 BR         67.1846   93.0964   15.1953 Br      1  UNL1       -0.0458
     10 C          66.2758   94.9338   11.1922 C.3     1  UNL1        0.2525
     11 O          66.6307   94.2826   12.4960 O.3     1  UNL1       -0.4709
     12 C          63.9696   86.7931   15.0606 C.2     1  UNL1        0.2111
     13 O          63.3292   86.7053   16.4141 O.2     1  UNL1       -0.2850
     14 C          63.9171   85.6192   14.1283 C.ar    1  UNL1        0.0961
     15 C          64.7349   84.3667   14.2407 C.ar    1  UNL1        0.0218
     16 C          64.3608   83.4650   13.1019 C.ar    1  UNL1        0.0200
     17 C          63.3118   84.1603   12.2856 C.ar    1  UNL1        0.0725
     18 N          63.0376   85.4916   12.9199 N.ar    1  UNL1       -0.3495
     19 H          62.3935   86.1636   12.5995 H       1  UNL1        0.1661
@<TRIPOS>BOND
     1    10    11    1
     2    11     3    1
     3     3     4   ar
     4     4     5   ar
     5     5     6   ar
     6     6     1    1
     7     1     2    2
     8     2    12    1
     9    12    13    2
    10    12    14    1
    11    14    15   ar
    12    15    16   ar
    13    16    17   ar
    14    17    18   ar
    15     6     7   ar
    16     7     8   ar
    17     8     9    1
    18     8     3   ar
    19    18    14   ar
    20    18    19    1
@<TRIPOS>MOLECULE
*****
 19 20 0 0 0
SMALL
GASTEIGER

@<TRIPOS>ATOM
      1 C          63.8932   88.3966   14.9263 C.2     1  UNL1        0.0033
      2 C          64.3196   87.0204   14.5089 C.2     1  UNL1        0.0435
      3 C          64.9690   91.9524   12.3867 C.ar    1  UNL1        0.1448
      4 C          65.6641   91.7287   13.6969 C.ar    1  UNL1        0.0374
      5 C          65.3055   90.5434   14.5434 C.ar    1  UNL1        0.0031
      6 C          64.2518   89.5819   14.0797 C.ar    1  UNL1        0.0008
      7 C          63.5567   89.8056   12.7695 C.ar    1  UNL1        0.0097
      8 C          63.9153   90.9908   11.9230 C.ar    1  UNL1        0.0685
      9 BR         63.2201   91.2145   10.6127 Br      1  UNL1       -0.0458
     10 C          66.2344   94.2013   12.0845 C.3     1  UNL1        0.2525
     11 O          65.3276   93.1376   11.5401 O.3     1  UNL1       -0.4709
     12 C          63.9610   85.8352   15.3555 C.2     1  UNL1        0.2111
     13 O          63.7792   85.9980   16.8354 O.2     1  UNL1       -0.2850
     14 C          63.7841   84.4870   14.7219 C.ar    1  UNL1        0.0961
     15 C          64.5566   83.9547   13.5514 C.ar    1  UNL1        0.0218
     16 C          64.0537   82.5733   13.2537 C.ar    1  UNL1        0.0200
     17 C          62.9704   82.2517   14.2403 C.ar    1  UNL1        0.0725
     18 N          62.8039   83.4345   15.1477 N.ar    1  UNL1       -0.3495
     19 H          62.1636   83.5072   15.8920 H       1  UNL1        0.1661
@<TRIPOS>BOND
     1    10    11    1
     2    11     3    1
     3     3     4   ar
     4     4     5   ar
     5     5     6   ar
     6     6     1    1
     7     1     2    2
     8     2    12    1
     9    12    13    2
    10    12    14    1
    11    14    15   ar
    12    15    16   ar
    13    16    17   ar
    14    17    18   ar
    15     6     7   ar
    16     7     8   ar
    17     8     9    1
    18     8     3   ar
    19    18    14   ar
    20    18    19    1
@<TRIPOS>MOLECULE
*****
 19 20 0 0 0
SMALL
GASTEIGER

@<TRIPOS>ATOM
      1 C          63.9778   91.3321   12.4135 C.2     1  UNL1        0.0033
      2 C          65.0238   92.1091   11.6704 C.2     1  UNL1        0.0435
      3 C          61.4870   88.2720   10.2499 C.ar    1  UNL1        0.1448
      4 C          61.4170   89.7156    9.8486 C.ar    1  UNL1        0.0374
      5 C          62.2472   90.7356   10.5698 C.ar    1  UNL1        0.0031
      6 C          63.1475   90.3121   11.6923 C.ar    1  UNL1        0.0008
      7 C          63.2176   88.8685   12.0935 C.ar    1  UNL1        0.0097
      8 C          62.3873   87.8484   11.3723 C.ar    1  UNL1        0.0685
      9 BR         62.4574   86.4047   11.7736 Br      1  UNL1       -0.0458
     10 C          59.9462   87.6236    8.2610 C.3     1  UNL1        0.2525
     11 O          60.6567   87.2519    9.5286 O.3     1  UNL1       -0.4709
     12 C          65.8540   93.1291   12.3916 C.2     1  UNL1        0.2111
     13 O          66.0375   94.4974   11.8050 O.2     1  UNL1       -0.2850
     14 C          66.5008   92.7808   13.6994 C.ar    1  UNL1        0.0961
     15 C          67.5645   91.7440   13.9085 C.ar    1  UNL1        0.0218
     16 C          67.9186   91.7306   15.3661 C.ar    1  UNL1        0.0200
     17 C          67.0738   92.7591   16.0578 C.ar    1  UNL1        0.0725
     18 N          66.1976   93.4082   15.0277 N.ar    1  UNL1       -0.3495
     19 H          65.5390   94.1208   15.1943 H       1  UNL1        0.1661
@<TRIPOS>BOND
     1    10    11    1
     2    11     3    1
     3     3     4   ar
     4     4     5   ar
     5     5     6   ar
     6     6     1    1
     7     1     2    2
     8     2    12    1
     9    12    13    2
    10    12    14    1
    11    14    15   ar
    12    15    16   ar
    13    16    17   ar
    14    17    18   ar
    15     6     7   ar
    16     7     8   ar
    17     8     9    1
    18     8     3   ar
    19    18    14   ar
    20    18    19    1
