@<TRIPOS>MOLECULE
*****
 42 45 0 0 0
SMALL
GASTEIGER

@<TRIPOS>ATOM
      1 C          62.4214   90.0126   12.0955 C.3     1  UNL1        0.1484
      2 O          61.0420   90.1940   12.6560 O.3     1  UNL1       -0.3810
      3 H          60.9930   91.0407   13.1266 H       1  UNL1        0.2105
      4 C          63.4640   91.0692   12.3120 C.3     1  UNL1        0.1245
      5 N          64.0807   91.2475   13.6677 N.am    1  UNL1       -0.2735
      6 C          65.3923   91.9619   13.8068 C.2     1  UNL1        0.2491
      7 O          66.0090   92.1402   15.1625 O.2     1  UNL1       -0.2699
      8 C          66.0872   92.4979   12.5903 C.ar    1  UNL1        0.0542
      9 C          67.0367   91.6258   11.8236 C.ar    1  UNL1        0.0061
     10 C          67.7315   92.1619   10.6072 C.ar    1  UNL1        0.0198
     11 C          67.4769   93.5700   10.1574 C.ar    1  UNL1        0.0892
     12 N          68.0121   94.3681    9.0055 N.ar    1  UNL1       -0.2245
     13 C          67.3933   95.7334    9.0604 C.ar    1  UNL1        0.1567
     14 N          67.6474   96.8559    8.0984 N.pl3   1  UNL1       -0.3375
     15 S          66.4757   95.7791   10.2461 S.2     1  UNL1       -0.0520
     16 C          66.5274   94.4421   10.9241 C.ar    1  UNL1        0.0498
     17 C          65.8325   93.9061   12.1406 C.ar    1  UNL1        0.0126
     18 H          68.2705   96.7286    7.3469 H       1  UNL1        0.1442
     19 H          67.1911   97.7200    8.2185 H       1  UNL1        0.1442
     20 C          63.3858   90.7115   14.8842 C.3     1  UNL1        0.0937
     21 C          64.6506   88.4570   14.6242 C.3     1  UNL1        0.0018
     22 C          63.7318   89.3484   15.4060 C.3     1  UNL1        0.0199
     23 C          63.1589   88.8766   16.7096 C.3     1  UNL1        0.0018
     24 C          62.7584   88.7746   11.3183 C.3     1  UNL1        0.1075
     25 N          63.1792   87.5281   12.0389 N.am    1  UNL1       -0.2695
     26 C          62.1864   86.4298   12.2801 C.2     1  UNL1        0.4020
     27 O          60.7728   86.5781   11.8008 O.2     1  UNL1       -0.2264
     28 H          64.1070   87.4308   12.3534 H       1  UNL1        0.1528
     29 O          62.6072   85.1834   13.0006 O.3     1  UNL1       -0.4291
     30 C          63.0249   83.9715   12.2215 C.3     1  UNL1        0.2447
     31 C          62.7893   82.6008   12.7834 C.ar    1  UNL1        0.0714
     32 C          62.4741   82.2763   14.2136 C.ar    1  UNL1        0.1053
     33 N          62.3175   80.7889   14.3279 N.ar    1  UNL1       -0.2350
     34 C          62.5360   80.1941   12.9682 C.ar    1  UNL1        0.1343
     35 S          62.8276   81.3139   12.0138 S.2     1  UNL1       -0.0652
     36 C          62.6745   88.7832    9.8207 C.3     1  UNL1        0.0485
     37 C          61.5576   88.0603    9.1280 C.ar    1  UNL1       -0.0204
     38 C          61.7459   86.6406    8.6818 C.ar    1  UNL1       -0.0042
     39 C          60.6288   85.9178    7.9891 C.ar    1  UNL1       -0.0003
     40 C          59.3236   86.6146    7.7426 C.ar    1  UNL1       -0.0000
     41 C          59.1354   88.0343    8.1887 C.ar    1  UNL1       -0.0003
     42 C          60.2523   88.7571    8.8814 C.ar    1  UNL1       -0.0042
@<TRIPOS>BOND
     1    21    22    1
     2    22    23    1
     3    22    20    1
     4    20     5    1
     5     5     4    1
     6     4     1    1
     7     1     2    1
     8     1    24    1
     9    24    36    1
    10    36    37    1
    11    37    38   ar
    12    38    39   ar
    13    39    40   ar
    14    40    41   ar
    15    41    42   ar
    16    24    25    1
    17    25    26   am
    18    26    27    2
    19    26    29    1
    20    29    30    1
    21    30    31    1
    22    31    32   ar
    23    32    33   ar
    24    33    34   ar
    25    34    35   ar
    26     5     6   am
    27     6     7    2
    28     6     8    1
    29     8     9   ar
    30     9    10   ar
    31    10    11   ar
    32    11    12   ar
    33    12    13   ar
    34    13    14    1
    35    13    15   ar
    36    15    16   ar
    37    16    17   ar
    38    42    37   ar
    39    35    31   ar
    40    17     8   ar
    41    16    11   ar
    42     2     3    1
    43    25    28    1
    44    14    18    1
    45    14    19    1
@<TRIPOS>MOLECULE
*****
 42 45 0 0 0
SMALL
GASTEIGER

@<TRIPOS>ATOM
      1 C          61.9814   89.3424   11.9263 C.3     1  UNL1        0.1484
      2 O          60.9711   90.0534   12.7770 O.3     1  UNL1       -0.3810
      3 H          61.4286   90.6334   13.4057 H       1  UNL1        0.2105
      4 C          63.4458   89.5930   12.1336 C.3     1  UNL1        0.1245
      5 N          63.8967   90.7344   12.9960 N.am    1  UNL1       -0.2735
      6 C          64.1148   90.5239   14.4651 C.2     1  UNL1        0.2491
      7 O          64.5656   91.6653   15.3275 O.2     1  UNL1       -0.2699
      8 C          63.8820   89.1719   15.0717 C.ar    1  UNL1        0.0542
      9 C          63.1939   89.0539   16.3993 C.ar    1  UNL1        0.0061
     10 C          62.9612   87.7019   17.0058 C.ar    1  UNL1        0.0198
     11 C          63.4165   86.4679   16.2848 C.ar    1  UNL1        0.0892
     12 N          63.3261   85.0115   16.6323 N.ar    1  UNL1       -0.2245
     13 C          63.9584   84.2294   15.5194 C.ar    1  UNL1        0.1567
     14 N          64.0870   82.7363   15.4533 N.pl3   1  UNL1       -0.3375
     15 S          64.4396   85.2024   14.4842 S.2     1  UNL1       -0.0520
     16 C          64.1047   86.5859   14.9572 C.ar    1  UNL1        0.0498
     17 C          64.3374   87.9379   14.3507 C.ar    1  UNL1        0.0126
     18 H          63.7380   82.1793   16.1862 H       1  UNL1        0.1442
     19 H          64.5203   82.3134   14.6770 H       1  UNL1        0.1442
     20 C          64.1295   92.0865   12.3894 C.3     1  UNL1        0.0937
     21 C          65.6335   92.8440   10.4110 C.3     1  UNL1        0.0018
     22 C          65.4824   92.4429   11.8485 C.3     1  UNL1        0.0199
     23 C          66.6841   92.3983   12.7451 C.3     1  UNL1        0.0018
     24 C          61.5275   88.3809   10.8683 C.3     1  UNL1        0.1075
     25 N          61.4195   88.8316    9.4416 N.am    1  UNL1       -0.2695
     26 C          60.2472   88.4072    8.6077 C.2     1  UNL1        0.4020
     27 O          59.1828   87.5320    9.2004 O.2     1  UNL1       -0.2264
     28 H          62.1181   89.4060    9.0527 H       1  UNL1        0.1528
     29 O          60.1392   88.8579    7.1811 O.3     1  UNL1       -0.4291
     30 C          58.8602   89.4602    6.6796 C.3     1  UNL1        0.2447
     31 C          58.8989   90.5767    5.6787 C.ar    1  UNL1        0.0714
     32 C          57.7136   91.3303    5.1521 C.ar    1  UNL1        0.1053
     33 N          58.2118   92.3550    4.1766 N.ar    1  UNL1       -0.2350
     34 C          59.7050   92.2348    4.1002 C.ar    1  UNL1        0.1343
     35 S          60.1297   91.1358    5.0286 S.2     1  UNL1       -0.0652
     36 C          61.1815   86.9687   11.2369 C.3     1  UNL1        0.0485
     37 C          62.0460   85.8373   10.7654 C.ar    1  UNL1       -0.0204
     38 C          62.4425   84.7488   11.7183 C.ar    1  UNL1       -0.0042
     39 C          63.3071   83.6173   11.2468 C.ar    1  UNL1       -0.0003
     40 C          63.7752   83.5743    9.8223 C.ar    1  UNL1       -0.0000
     41 C          63.3787   84.6628    8.8694 C.ar    1  UNL1       -0.0003
     42 C          62.5142   85.7942    9.3409 C.ar    1  UNL1       -0.0042
@<TRIPOS>BOND
     1    21    22    1
     2    22    23    1
     3    22    20    1
     4    20     5    1
     5     5     4    1
     6     4     1    1
     7     1     2    1
     8     1    24    1
     9    24    36    1
    10    36    37    1
    11    37    38   ar
    12    38    39   ar
    13    39    40   ar
    14    40    41   ar
    15    41    42   ar
    16    24    25    1
    17    25    26   am
    18    26    27    2
    19    26    29    1
    20    29    30    1
    21    30    31    1
    22    31    32   ar
    23    32    33   ar
    24    33    34   ar
    25    34    35   ar
    26     5     6   am
    27     6     7    2
    28     6     8    1
    29     8     9   ar
    30     9    10   ar
    31    10    11   ar
    32    11    12   ar
    33    12    13   ar
    34    13    14    1
    35    13    15   ar
    36    15    16   ar
    37    16    17   ar
    38    42    37   ar
    39    35    31   ar
    40    17     8   ar
    41    16    11   ar
    42     2     3    1
    43    25    28    1
    44    14    18    1
    45    14    19    1
@<TRIPOS>MOLECULE
*****
 42 45 0 0 0
SMALL
GASTEIGER

@<TRIPOS>ATOM
      1 C          64.1611   85.3442   13.7316 C.3     1  UNL1        0.1484
      2 O          65.3087   84.3791   13.6942 O.3     1  UNL1       -0.3810
      3 H          66.1329   84.8488   13.8970 H       1  UNL1        0.2105
      4 C          64.4064   86.7895   14.0497 C.3     1  UNL1        0.1245
      5 N          64.0041   87.3423   15.3848 N.am    1  UNL1       -0.2735
      6 C          63.8302   88.8215   15.5625 C.2     1  UNL1        0.2491
      7 O          63.4279   89.3744   16.8976 O.2     1  UNL1       -0.2699
      8 C          64.0587   89.7480   14.4050 C.ar    1  UNL1        0.0542
      9 C          63.1808   89.6630   13.1918 C.ar    1  UNL1        0.0061
     10 C          63.4093   90.5894   12.0344 C.ar    1  UNL1        0.0198
     11 C          64.5156   91.6008   12.0904 C.ar    1  UNL1        0.0892
     12 N          64.9772   92.6387   11.1106 N.ar    1  UNL1       -0.2245
     13 C          66.1404   93.3650   11.7184 C.ar    1  UNL1        0.1567
     14 N          66.9111   94.4839   11.0825 N.pl3   1  UNL1       -0.3375
     15 S          66.3976   92.7761   13.0738 S.2     1  UNL1       -0.0520
     16 C          65.3935   91.6858   13.3036 C.ar    1  UNL1        0.0498
     17 C          65.1650   90.7594   14.4610 C.ar    1  UNL1        0.0126
     18 H          66.6650   94.8027   10.1841 H       1  UNL1        0.1442
     19 H          67.6630   94.8993   11.5635 H       1  UNL1        0.1442
     20 C          63.7756   86.4158   16.5422 C.3     1  UNL1        0.0937
     21 C          61.1853   86.2949   16.7016 C.3     1  UNL1        0.0018
     22 C          62.5175   86.5233   17.3519 C.3     1  UNL1        0.0199
     23 C          62.5917   86.8593   18.8120 C.3     1  UNL1        0.0018
     24 C          62.7680   84.8641   13.4508 C.3     1  UNL1        0.1075
     25 N          61.9072   85.5957   12.4639 N.am    1  UNL1       -0.2695
     26 C          62.1425   85.4251   10.9923 C.2     1  UNL1        0.4020
     27 O          63.2385   84.5230   10.5076 O.2     1  UNL1       -0.2264
     28 H          61.1879   86.1878   12.7820 H       1  UNL1        0.1528
     29 O          61.2818   86.1567   10.0054 O.3     1  UNL1       -0.4291
     30 C          61.5508   87.6007    9.7012 C.3     1  UNL1        0.2447
     31 C          60.7322   88.6711   10.3602 C.ar    1  UNL1        0.0714
     32 C          60.5664   90.0800    9.8727 C.ar    1  UNL1        0.1053
     33 N          59.6675   90.8002   10.8335 N.ar    1  UNL1       -0.2350
     34 C          59.2777   89.8364   11.9148 C.ar    1  UNL1        0.1343
     35 S          59.9358   88.5206   11.6223 S.2     1  UNL1       -0.0652
     36 C          62.2357   83.6525   14.1568 C.3     1  UNL1        0.0485
     37 C          62.3481   82.3011   13.5158 C.ar    1  UNL1       -0.0204
     38 C          61.8467   81.0850   14.2366 C.ar    1  UNL1       -0.0042
     39 C          61.9592   79.7335   13.5955 C.ar    1  UNL1       -0.0003
     40 C          62.5732   79.5982   12.2336 C.ar    1  UNL1       -0.0000
     41 C          63.0746   80.8143   11.5128 C.ar    1  UNL1       -0.0003
     42 C          62.9621   82.1657   12.1539 C.ar    1  UNL1       -0.0042
@<TRIPOS>BOND
     1    21    22    1
     2    22    23    1
     3    22    20    1
     4    20     5    1
     5     5     4    1
     6     4     1    1
     7     1     2    1
     8     1    24    1
     9    24    36    1
    10    36    37    1
    11    37    38   ar
    12    38    39   ar
    13    39    40   ar
    14    40    41   ar
    15    41    42   ar
    16    24    25    1
    17    25    26   am
    18    26    27    2
    19    26    29    1
    20    29    30    1
    21    30    31    1
    22    31    32   ar
    23    32    33   ar
    24    33    34   ar
    25    34    35   ar
    26     5     6   am
    27     6     7    2
    28     6     8    1
    29     8     9   ar
    30     9    10   ar
    31    10    11   ar
    32    11    12   ar
    33    12    13   ar
    34    13    14    1
    35    13    15   ar
    36    15    16   ar
    37    16    17   ar
    38    42    37   ar
    39    35    31   ar
    40    17     8   ar
    41    16    11   ar
    42     2     3    1
    43    25    28    1
    44    14    18    1
    45    14    19    1
@<TRIPOS>MOLECULE
*****
 42 45 0 0 0
SMALL
GASTEIGER

@<TRIPOS>ATOM
      1 C          62.5622   86.2414    9.6190 C.3     1  UNL1        0.1484
      2 O          62.8508   85.7865    8.2191 O.3     1  UNL1       -0.3810
      3 H          62.9813   86.5599    7.6483 H       1  UNL1        0.2105
      4 C          62.5148   87.7066    9.9369 C.3     1  UNL1        0.1245
      5 N          61.1928   88.4028   10.0695 N.am    1  UNL1       -0.2735
      6 C          61.1268   89.7813   10.6572 C.2     1  UNL1        0.2491
      7 O          59.8048   90.4775   10.7899 O.2     1  UNL1       -0.2699
      8 C          62.3828   90.4636   11.1122 C.ar    1  UNL1        0.0542
      9 C          63.1533   91.3292   10.1599 C.ar    1  UNL1        0.0061
     10 C          64.4092   92.0115   10.6149 C.ar    1  UNL1        0.0198
     11 C          64.8947   91.8281   12.0223 C.ar    1  UNL1        0.0892
     12 N          66.0890   92.3696   12.7507 N.ar    1  UNL1       -0.2245
     13 C          66.0566   91.8386   14.1531 C.ar    1  UNL1        0.1567
     14 N          67.0620   92.1267   15.2285 N.pl3   1  UNL1       -0.3375
     15 S          64.8423   90.9690   14.2916 S.2     1  UNL1       -0.0520
     16 C          64.1242   90.9625   12.9747 C.ar    1  UNL1        0.0498
     17 C          62.8682   90.2803   12.5196 C.ar    1  UNL1        0.0126
     18 H          67.8299   92.7132   15.0400 H       1  UNL1        0.1442
     19 H          66.9540   91.7291   16.1226 H       1  UNL1        0.1442
     20 C          59.9368   87.7205    9.6145 C.3     1  UNL1        0.0937
     21 C          59.4742   88.9028    7.3478 C.3     1  UNL1        0.0018
     22 C          59.6124   87.6442    8.1520 C.3     1  UNL1        0.0199
     23 C          59.4261   86.3093    7.4937 C.3     1  UNL1        0.0018
     24 C          62.3209   85.2310   10.7012 C.3     1  UNL1        0.1075
     25 N          62.3710   83.7658   10.3839 N.am    1  UNL1       -0.2695
     26 C          63.6876   83.0472   10.3642 C.2     1  UNL1        0.4020
     27 O          64.9541   83.7940   10.6617 O.2     1  UNL1       -0.2264
     28 H          61.5398   83.2757   10.1886 H       1  UNL1        0.1528
     29 O          63.7377   81.5821   10.0469 O.3     1  UNL1       -0.4291
     30 C          63.0800   80.5933   10.9633 C.3     1  UNL1        0.2447
     31 C          62.8923   80.9250   12.4142 C.ar    1  UNL1        0.0714
     32 C          63.9808   81.0437   13.4394 C.ar    1  UNL1        0.1053
     33 N          63.3445   81.3883   14.7533 N.ar    1  UNL1       -0.2350
     34 C          61.8627   81.4826   14.5401 C.ar    1  UNL1        0.1343
     35 S          61.5832   81.1963   13.0944 S.2     1  UNL1       -0.0652
     36 C          62.0296   85.6859   12.1005 C.3     1  UNL1        0.0485
     37 C          63.1402   85.7830   13.1040 C.ar    1  UNL1       -0.0204
     38 C          63.8175   84.5383   13.5959 C.ar    1  UNL1       -0.0042
     39 C          64.9282   84.6355   14.5995 C.ar    1  UNL1       -0.0003
     40 C          65.3614   85.9773   15.1111 C.ar    1  UNL1       -0.0000
     41 C          64.6841   87.2219   14.6192 C.ar    1  UNL1       -0.0003
     42 C          63.5735   87.1248   13.6157 C.ar    1  UNL1       -0.0042
@<TRIPOS>BOND
     1    21    22    1
     2    22    23    1
     3    22    20    1
     4    20     5    1
     5     5     4    1
     6     4     1    1
     7     1     2    1
     8     1    24    1
     9    24    36    1
    10    36    37    1
    11    37    38   ar
    12    38    39   ar
    13    39    40   ar
    14    40    41   ar
    15    41    42   ar
    16    24    25    1
    17    25    26   am
    18    26    27    2
    19    26    29    1
    20    29    30    1
    21    30    31    1
    22    31    32   ar
    23    32    33   ar
    24    33    34   ar
    25    34    35   ar
    26     5     6   am
    27     6     7    2
    28     6     8    1
    29     8     9   ar
    30     9    10   ar
    31    10    11   ar
    32    11    12   ar
    33    12    13   ar
    34    13    14    1
    35    13    15   ar
    36    15    16   ar
    37    16    17   ar
    38    42    37   ar
    39    35    31   ar
    40    17     8   ar
    41    16    11   ar
    42     2     3    1
    43    25    28    1
    44    14    18    1
    45    14    19    1
@<TRIPOS>MOLECULE
*****
 42 45 0 0 0
SMALL
GASTEIGER

@<TRIPOS>ATOM
      1 C          60.9641   89.1144   10.9860 C.3     1  UNL1        0.1484
      2 O          60.1783   90.1721   11.7025 O.3     1  UNL1       -0.3810
      3 H          60.6094   90.3793   12.5464 H       1  UNL1        0.2105
      4 C          62.2102   88.5558   11.6069 C.3     1  UNL1        0.1245
      5 N          63.0508   89.4148   12.5044 N.am    1  UNL1       -0.2735
      6 C          63.8905   88.7839   13.5753 C.2     1  UNL1        0.2491
      7 O          64.7311   89.6429   14.4728 O.2     1  UNL1       -0.2699
      8 C          63.8896   87.2939   13.7486 C.ar    1  UNL1        0.0542
      9 C          64.4623   86.6833   14.9933 C.ar    1  UNL1        0.0061
     10 C          64.4614   85.1934   15.1666 C.ar    1  UNL1        0.0198
     11 C          63.8879   84.3140   14.0953 C.ar    1  UNL1        0.0892
     12 N          63.7494   82.8243   13.9869 N.ar    1  UNL1       -0.2245
     13 C          63.0911   82.5143   12.6752 C.ar    1  UNL1        0.1567
     14 N          62.7595   81.1463   12.1567 N.pl3   1  UNL1       -0.3375
     15 S          62.8228   83.8123   11.9730 S.2     1  UNL1       -0.0520
     16 C          63.3152   84.9246   12.8507 C.ar    1  UNL1        0.0498
     17 C          63.3160   86.4145   12.6773 C.ar    1  UNL1        0.0126
     18 H          62.9761   80.3503   12.6940 H       1  UNL1        0.1442
     19 H          62.3251   81.0445   11.2791 H       1  UNL1        0.1442
     20 C          63.0516   90.9048   12.3311 C.3     1  UNL1        0.0937
     21 C          65.2076   92.1622   11.6094 C.3     1  UNL1        0.0018
     22 C          63.8910   91.5346   11.2592 C.3     1  UNL1        0.0199
     23 C          63.4137   91.5369    9.8371 C.3     1  UNL1        0.0018
     24 C          60.5040   88.6151    9.6484 C.3     1  UNL1        0.1075
     25 N          60.4054   89.5608    8.4882 N.am    1  UNL1       -0.2695
     26 C          59.3698   89.3392    7.4260 C.2     1  UNL1        0.4020
     27 O          58.4328   88.1719    7.5239 O.2     1  UNL1       -0.2264
     28 H          61.0204   90.3269    8.4240 H       1  UNL1        0.1528
     29 O          59.2712   90.2848    6.2658 O.3     1  UNL1       -0.4291
     30 C          60.4764   90.5567    5.4153 C.3     1  UNL1        0.2447
     31 C          60.4110   91.5905    4.3303 C.ar    1  UNL1        0.0714
     32 C          59.2273   92.4521    4.0037 C.ar    1  UNL1        0.1053
     33 N          59.6024   93.3383    2.8530 N.ar    1  UNL1       -0.2350
     34 C          61.0179   93.0243    2.4685 C.ar    1  UNL1        0.1343
     35 S          61.5176   91.9442    3.3815 S.2     1  UNL1       -0.0652
     36 C          60.1425   87.1701    9.4710 C.3     1  UNL1        0.0485
     37 C          61.0052   86.2794    8.6271 C.ar    1  UNL1       -0.0204
     38 C          62.4243   86.0086    9.0305 C.ar    1  UNL1       -0.0042
     39 C          63.2870   85.1178    8.1865 C.ar    1  UNL1       -0.0003
     40 C          62.7306   84.4978    6.9391 C.ar    1  UNL1       -0.0000
     41 C          61.3115   84.7687    6.5357 C.ar    1  UNL1       -0.0003
     42 C          60.4488   85.6594    7.3796 C.ar    1  UNL1       -0.0042
@<TRIPOS>BOND
     1    21    22    1
     2    22    23    1
     3    22    20    1
     4    20     5    1
     5     5     4    1
     6     4     1    1
     7     1     2    1
     8     1    24    1
     9    24    36    1
    10    36    37    1
    11    37    38   ar
    12    38    39   ar
    13    39    40   ar
    14    40    41   ar
    15    41    42   ar
    16    24    25    1
    17    25    26   am
    18    26    27    2
    19    26    29    1
    20    29    30    1
    21    30    31    1
    22    31    32   ar
    23    32    33   ar
    24    33    34   ar
    25    34    35   ar
    26     5     6   am
    27     6     7    2
    28     6     8    1
    29     8     9   ar
    30     9    10   ar
    31    10    11   ar
    32    11    12   ar
    33    12    13   ar
    34    13    14    1
    35    13    15   ar
    36    15    16   ar
    37    16    17   ar
    38    42    37   ar
    39    35    31   ar
    40    17     8   ar
    41    16    11   ar
    42     2     3    1
    43    25    28    1
    44    14    18    1
    45    14    19    1
@<TRIPOS>MOLECULE
*****
 42 45 0 0 0
SMALL
GASTEIGER

@<TRIPOS>ATOM
      1 C          64.3692   86.3407   14.1392 C.3     1  UNL1        0.1484
      2 O          65.5757   85.9122   14.9208 O.3     1  UNL1       -0.3810
      3 H          66.0032   86.6917   15.3088 H       1  UNL1        0.2105
      4 C          64.0039   87.7935   14.0603 C.3     1  UNL1        0.1245
      5 N          63.3808   88.4754   15.2421 N.am    1  UNL1       -0.2735
      6 C          63.7082   89.9086   15.5396 C.2     1  UNL1        0.2491
      7 O          63.0851   90.5906   16.7215 O.2     1  UNL1       -0.2699
      8 C          64.6587   90.6600   14.6552 C.ar    1  UNL1        0.0542
      9 C          66.0590   90.9319   15.1191 C.ar    1  UNL1        0.0061
     10 C          67.0094   91.6832   14.2347 C.ar    1  UNL1        0.0198
     11 C          66.5595   92.1628   12.8865 C.ar    1  UNL1        0.0892
     12 N          67.2671   92.9227   11.8040 N.ar    1  UNL1       -0.2245
     13 C          66.3040   93.1205   10.6711 C.ar    1  UNL1        0.1567
     14 N          66.5930   93.8312    9.3821 N.pl3   1  UNL1       -0.3375
     15 S          65.0013   92.4829   11.0535 S.2     1  UNL1       -0.0520
     16 C          65.1591   91.8910   12.4227 C.ar    1  UNL1        0.0498
     17 C          64.2087   91.1396   13.3071 C.ar    1  UNL1        0.0126
     18 H          67.4838   94.2190    9.2227 H       1  UNL1        0.1442
     19 H          65.8919   93.9099    8.6955 H       1  UNL1        0.1442
     20 C          62.4303   87.7240   16.1265 C.3     1  UNL1        0.0937
     21 C          62.8491   87.5380   18.6838 C.3     1  UNL1        0.0018
     22 C          62.9506   86.9558   17.3052 C.3     1  UNL1        0.0199
     23 C          63.5725   85.6055   17.1051 C.3     1  UNL1        0.0018
     24 C          63.5281   85.3166   13.4366 C.3     1  UNL1        0.1075
     25 N          63.5015   85.2683   11.9376 N.am    1  UNL1       -0.2695
     26 C          62.3453   85.8616   11.1885 C.2     1  UNL1        0.4020
     27 O          61.2156   86.5032   11.9385 O.2     1  UNL1       -0.2264
     28 H          64.2430   84.8473   11.4454 H       1  UNL1        0.1528
     29 O          62.3187   85.8134    9.6896 O.3     1  UNL1       -0.4291
     30 C          61.0067   85.7677    8.9638 C.3     1  UNL1        0.2447
     31 C          60.3640   87.0396    8.4955 C.ar    1  UNL1        0.0714
     32 C          59.3117   87.1564    7.4329 C.ar    1  UNL1        0.1053
     33 N          58.9580   88.6069    7.2882 N.ar    1  UNL1       -0.2350
     34 C          59.7917   89.3866    8.2614 C.ar    1  UNL1        0.1343
     35 S          60.6606   88.4179    9.0076 S.2     1  UNL1       -0.0652
     36 C          62.7136   84.3407   14.2330 C.3     1  UNL1        0.0485
     37 C          62.6048   82.9133   13.7851 C.ar    1  UNL1       -0.0204
     38 C          61.6083   81.9980   14.4325 C.ar    1  UNL1       -0.0042
     39 C          61.4995   80.5705   13.9846 C.ar    1  UNL1       -0.0003
     40 C          62.3872   80.0585   12.8893 C.ar    1  UNL1       -0.0000
     41 C          63.3837   80.9738   12.2419 C.ar    1  UNL1       -0.0003
     42 C          63.4925   82.4012   12.6897 C.ar    1  UNL1       -0.0042
@<TRIPOS>BOND
     1    21    22    1
     2    22    23    1
     3    22    20    1
     4    20     5    1
     5     5     4    1
     6     4     1    1
     7     1     2    1
     8     1    24    1
     9    24    36    1
    10    36    37    1
    11    37    38   ar
    12    38    39   ar
    13    39    40   ar
    14    40    41   ar
    15    41    42   ar
    16    24    25    1
    17    25    26   am
    18    26    27    2
    19    26    29    1
    20    29    30    1
    21    30    31    1
    22    31    32   ar
    23    32    33   ar
    24    33    34   ar
    25    34    35   ar
    26     5     6   am
    27     6     7    2
    28     6     8    1
    29     8     9   ar
    30     9    10   ar
    31    10    11   ar
    32    11    12   ar
    33    12    13   ar
    34    13    14    1
    35    13    15   ar
    36    15    16   ar
    37    16    17   ar
    38    42    37   ar
    39    35    31   ar
    40    17     8   ar
    41    16    11   ar
    42     2     3    1
    43    25    28    1
    44    14    18    1
    45    14    19    1
@<TRIPOS>MOLECULE
*****
 42 45 0 0 0
SMALL
GASTEIGER

@<TRIPOS>ATOM
      1 C          62.4609   89.3006   12.1598 C.3     1  UNL1        0.1484
      2 O          61.3634   90.0419   12.8639 O.3     1  UNL1       -0.3810
      3 H          61.7490   90.7252   13.4343 H       1  UNL1        0.2105
      4 C          63.8935   89.6735   12.4024 C.3     1  UNL1        0.1245
      5 N          64.2285   90.7871   13.3499 N.am    1  UNL1       -0.2735
      6 C          64.2627   90.5300   14.8272 C.2     1  UNL1        0.2491
      7 O          64.5977   91.6436   15.7747 O.2     1  UNL1       -0.2699
      8 C          63.9620   89.1593   15.3572 C.ar    1  UNL1        0.0542
      9 C          63.1711   89.0010   16.6218 C.ar    1  UNL1        0.0061
     10 C          62.8704   87.6303   17.1517 C.ar    1  UNL1        0.0198
     11 C          63.3607   86.4180   16.4170 C.ar    1  UNL1        0.0892
     12 N          63.2204   84.9507   16.6954 N.ar    1  UNL1       -0.2245
     13 C          63.9246   84.2022   15.6028 C.ar    1  UNL1        0.1567
     14 N          64.0341   82.7108   15.4845 N.pl3   1  UNL1       -0.3375
     15 S          64.5002   85.2069   14.6492 S.2     1  UNL1       -0.0520
     16 C          64.1517   86.5763   15.1524 C.ar    1  UNL1        0.0498
     17 C          64.4523   87.9470   14.6225 C.ar    1  UNL1        0.0126
     18 H          63.6205   82.1314   16.1645 H       1  UNL1        0.1442
     19 H          64.5196   82.3114   14.7269 H       1  UNL1        0.1442
     20 C          64.5292   92.1578   12.8199 C.3     1  UNL1        0.0937
     21 C          64.0871   92.0564   10.2617 C.3     1  UNL1        0.0018
     22 C          65.0131   92.3274   11.4103 C.3     1  UNL1        0.0199
     23 C          66.4230   92.7680   11.1492 C.3     1  UNL1        0.0018
     24 C          62.1260   88.1863   11.2131 C.3     1  UNL1        0.1075
     25 N          61.7098   86.8478   11.7474 N.am    1  UNL1       -0.2695
     26 C          62.2404   85.5923   11.1211 C.2     1  UNL1        0.4020
     27 O          63.1871   85.6753    9.9605 O.2     1  UNL1       -0.2264
     28 H          61.0885   86.7934   12.5091 H       1  UNL1        0.1528
     29 O          61.8242   84.2539   11.6554 O.3     1  UNL1       -0.4291
     30 C          62.8576   83.2022   11.9312 C.3     1  UNL1        0.2447
     31 C          62.4832   81.9639   12.6906 C.ar    1  UNL1        0.0714
     32 C          61.6255   81.9090   13.9199 C.ar    1  UNL1        0.1053
     33 N          61.5130   80.4743   14.3430 N.ar    1  UNL1       -0.2350
     34 C          62.3013   79.6425   13.3751 C.ar    1  UNL1        0.1343
     35 S          62.9009   80.5631   12.3539 S.2     1  UNL1       -0.0652
     36 C          62.2073   88.4104    9.7322 C.3     1  UNL1        0.0485
     37 C          61.0040   88.1682    8.8700 C.ar    1  UNL1       -0.0204
     38 C          60.5626   86.7653    8.5752 C.ar    1  UNL1       -0.0042
     39 C          59.3593   86.5231    7.7129 C.ar    1  UNL1       -0.0003
     40 C          58.5975   87.6839    7.1454 C.ar    1  UNL1       -0.0000
     41 C          59.0389   89.0869    7.4401 C.ar    1  UNL1       -0.0003
     42 C          60.2421   89.3291    8.3024 C.ar    1  UNL1       -0.0042
@<TRIPOS>BOND
     1    21    22    1
     2    22    23    1
     3    22    20    1
     4    20     5    1
     5     5     4    1
     6     4     1    1
     7     1     2    1
     8     1    24    1
     9    24    36    1
    10    36    37    1
    11    37    38   ar
    12    38    39   ar
    13    39    40   ar
    14    40    41   ar
    15    41    42   ar
    16    24    25    1
    17    25    26   am
    18    26    27    2
    19    26    29    1
    20    29    30    1
    21    30    31    1
    22    31    32   ar
    23    32    33   ar
    24    33    34   ar
    25    34    35   ar
    26     5     6   am
    27     6     7    2
    28     6     8    1
    29     8     9   ar
    30     9    10   ar
    31    10    11   ar
    32    11    12   ar
    33    12    13   ar
    34    13    14    1
    35    13    15   ar
    36    15    16   ar
    37    16    17   ar
    38    42    37   ar
    39    35    31   ar
    40    17     8   ar
    41    16    11   ar
    42     2     3    1
    43    25    28    1
    44    14    18    1
    45    14    19    1
@<TRIPOS>MOLECULE
*****
 42 45 0 0 0
SMALL
GASTEIGER

@<TRIPOS>ATOM
      1 C          58.4080   92.7348   -1.1455 C.3     1  UNL1        0.1484
      2 O          57.2858   92.0034   -0.4705 O.3     1  UNL1       -0.3810
      3 H          57.6336   91.5033    0.2844 H       1  UNL1        0.2105
      4 C          59.8068   92.6141   -0.6174 C.3     1  UNL1        0.1245
      5 N          60.4020   93.7285    0.1912 N.am    1  UNL1       -0.2735
      6 C          61.3886   94.6673   -0.4376 C.2     1  UNL1        0.2491
      7 O          61.9837   95.7817    0.3710 O.2     1  UNL1       -0.2699
      8 C          61.7800   94.4916   -1.8750 C.ar    1  UNL1        0.0542
      9 C          61.1905   95.3835   -2.9271 C.ar    1  UNL1        0.0061
     10 C          61.5819   95.2078   -4.3644 C.ar    1  UNL1        0.0198
     11 C          62.5628   94.1403   -4.7496 C.ar    1  UNL1        0.0892
     12 N          63.1341   93.7334   -6.0755 N.ar    1  UNL1       -0.2245
     13 C          64.0767   92.5900   -5.8427 C.ar    1  UNL1        0.1567
     14 N          64.8691   91.8722   -6.8950 N.pl3   1  UNL1       -0.3375
     15 S          64.0879   92.2904   -4.3730 S.2     1  UNL1       -0.0520
     16 C          63.1523   93.2485   -3.6974 C.ar    1  UNL1        0.0498
     17 C          62.7609   93.4242   -2.2601 C.ar    1  UNL1        0.0126
     18 H          64.7940   92.1436   -7.8383 H       1  UNL1        0.1442
     19 H          65.4642   91.1298   -6.6422 H       1  UNL1        0.1442
     20 C          60.0106   93.9041    1.6286 C.3     1  UNL1        0.0937
     21 C          61.9903   92.5210    2.5866 C.3     1  UNL1        0.0018
     22 C          60.5664   92.9842    2.6750 C.3     1  UNL1        0.0199
     23 C          59.6981   92.5276    3.8098 C.3     1  UNL1        0.0018
     24 C          58.1315   93.5870   -2.3485 C.3     1  UNL1        0.1075
     25 N          57.4024   94.8888   -2.1940 N.am    1  UNL1       -0.2695
     26 C          55.9420   94.8945   -1.8516 C.2     1  UNL1        0.4020
     27 O          55.2107   93.5983   -1.6638 O.2     1  UNL1       -0.2264
     28 H          57.8824   95.7395   -2.3172 H       1  UNL1        0.1528
     29 O          55.2130   96.1962   -1.6970 O.3     1  UNL1       -0.4291
     30 C          54.5372   96.8225   -2.8807 C.3     1  UNL1        0.2447
     31 C          53.1294   96.4398   -3.2298 C.ar    1  UNL1        0.0714
     32 C          52.1514   95.7538   -2.3227 C.ar    1  UNL1        0.1053
     33 N          50.8701   95.5659   -3.0796 N.ar    1  UNL1       -0.2350
     34 C          51.0562   96.1359   -4.4546 C.ar    1  UNL1        0.1343
     35 S          52.4525   96.6760   -4.5474 S.2     1  UNL1       -0.0652
     36 C          58.5840   93.1374   -3.7061 C.3     1  UNL1        0.0485
     37 C          57.5757   92.6906   -4.7228 C.ar    1  UNL1       -0.0204
     38 C          57.6424   93.2159   -6.1263 C.ar    1  UNL1       -0.0042
     39 C          56.6341   92.7691   -7.1430 C.ar    1  UNL1       -0.0003
     40 C          55.5591   91.7972   -6.7563 C.ar    1  UNL1       -0.0000
     41 C          55.4923   91.2719   -5.3529 C.ar    1  UNL1       -0.0003
     42 C          56.5006   91.7186   -4.3361 C.ar    1  UNL1       -0.0042
@<TRIPOS>BOND
     1    21    22    1
     2    22    23    1
     3    22    20    1
     4    20     5    1
     5     5     4    1
     6     4     1    1
     7     1     2    1
     8     1    24    1
     9    24    36    1
    10    36    37    1
    11    37    38   ar
    12    38    39   ar
    13    39    40   ar
    14    40    41   ar
    15    41    42   ar
    16    24    25    1
    17    25    26   am
    18    26    27    2
    19    26    29    1
    20    29    30    1
    21    30    31    1
    22    31    32   ar
    23    32    33   ar
    24    33    34   ar
    25    34    35   ar
    26     5     6   am
    27     6     7    2
    28     6     8    1
    29     8     9   ar
    30     9    10   ar
    31    10    11   ar
    32    11    12   ar
    33    12    13   ar
    34    13    14    1
    35    13    15   ar
    36    15    16   ar
    37    16    17   ar
    38    42    37   ar
    39    35    31   ar
    40    17     8   ar
    41    16    11   ar
    42     2     3    1
    43    25    28    1
    44    14    18    1
    45    14    19    1
@<TRIPOS>MOLECULE
*****
 42 45 0 0 0
SMALL
GASTEIGER

@<TRIPOS>ATOM
      1 C          64.0240   86.9677   13.9184 C.3     1  UNL1        0.1484
      2 O          65.1757   86.4873   14.7507 O.3     1  UNL1       -0.3810
      3 H          65.5941   87.2436   15.1909 H       1  UNL1        0.2105
      4 C          63.6898   88.4294   13.8727 C.3     1  UNL1        0.1245
      5 N          63.2970   89.1485   15.1291 N.am    1  UNL1       -0.2735
      6 C          63.8797   90.4964   15.4351 C.2     1  UNL1        0.2491
      7 O          63.4869   91.2156   16.6915 O.2     1  UNL1       -0.2699
      8 C          64.8552   91.1252   14.4848 C.ar    1  UNL1        0.0542
      9 C          66.2986   91.2583   14.8706 C.ar    1  UNL1        0.0061
     10 C          67.2740   91.8870   13.9203 C.ar    1  UNL1        0.0198
     11 C          66.8061   92.3827   12.5841 C.ar    1  UNL1        0.0892
     12 N          67.5309   93.0412   11.4478 N.ar    1  UNL1       -0.2245
     13 C          66.5354   93.3151   10.3597 C.ar    1  UNL1        0.1567
     14 N          66.8284   93.9643    9.0396 N.pl3   1  UNL1       -0.3375
     15 S          65.1954   92.8258   10.8235 S.2     1  UNL1       -0.0520
     16 C          65.3627   92.2496   12.1983 C.ar    1  UNL1        0.0498
     17 C          64.3873   91.6208   13.1486 C.ar    1  UNL1        0.0126
     18 H          67.7449   94.2530    8.8256 H       1  UNL1        0.1442
     19 H          66.1041   94.1017    8.3871 H       1  UNL1        0.1442
     20 C          62.3215   88.5198   16.0794 C.3     1  UNL1        0.0937
     21 C          63.1921   88.2938   18.5168 C.3     1  UNL1        0.0018
     22 C          62.8182   87.6649   17.2074 C.3     1  UNL1        0.0199
     23 C          62.9410   86.1809   17.0260 C.3     1  UNL1        0.0018
     24 C          63.2063   85.9865   13.1318 C.3     1  UNL1        0.1075
     25 N          62.4418   84.9084   13.8412 N.am    1  UNL1       -0.2695
     26 C          63.1754   83.7769   14.4981 C.2     1  UNL1        0.4020
     27 O          64.6736   83.7236   14.4457 O.2     1  UNL1       -0.2264
     28 H          61.4585   84.9434   13.8755 H       1  UNL1        0.1528
     29 O          62.4109   82.6988   15.2075 O.3     1  UNL1       -0.4291
     30 C          61.7319   81.6182   14.4193 C.3     1  UNL1        0.2447
     31 C          62.2553   81.2347   13.0668 C.ar    1  UNL1        0.0714
     32 C          62.6078   82.1804   11.9572 C.ar    1  UNL1        0.1053
     33 N          63.0884   81.3684   10.7912 N.ar    1  UNL1       -0.2350
     34 C          63.0330   79.9207   11.1802 C.ar    1  UNL1        0.1343
     35 S          62.5180   79.8382   12.5867 S.2     1  UNL1       -0.0652
     36 C          63.1533   86.0834   11.6359 C.3     1  UNL1        0.0485
     37 C          62.1977   87.0352   10.9795 C.ar    1  UNL1       -0.0204
     38 C          60.9073   86.5273   10.4077 C.ar    1  UNL1       -0.0042
     39 C          59.9517   87.4792    9.7512 C.ar    1  UNL1       -0.0003
     40 C          60.2865   88.9389    9.6666 C.ar    1  UNL1       -0.0000
     41 C          61.5769   89.4468   10.2385 C.ar    1  UNL1       -0.0003
     42 C          62.5325   88.4950   10.8949 C.ar    1  UNL1       -0.0042
@<TRIPOS>BOND
     1    21    22    1
     2    22    23    1
     3    22    20    1
     4    20     5    1
     5     5     4    1
     6     4     1    1
     7     1     2    1
     8     1    24    1
     9    24    36    1
    10    36    37    1
    11    37    38   ar
    12    38    39   ar
    13    39    40   ar
    14    40    41   ar
    15    41    42   ar
    16    24    25    1
    17    25    26   am
    18    26    27    2
    19    26    29    1
    20    29    30    1
    21    30    31    1
    22    31    32   ar
    23    32    33   ar
    24    33    34   ar
    25    34    35   ar
    26     5     6   am
    27     6     7    2
    28     6     8    1
    29     8     9   ar
    30     9    10   ar
    31    10    11   ar
    32    11    12   ar
    33    12    13   ar
    34    13    14    1
    35    13    15   ar
    36    15    16   ar
    37    16    17   ar
    38    42    37   ar
    39    35    31   ar
    40    17     8   ar
    41    16    11   ar
    42     2     3    1
    43    25    28    1
    44    14    18    1
    45    14    19    1
