@<TRIPOS>MOLECULE
*****
 32 36 0 0 0
SMALL
GASTEIGER

@<TRIPOS>ATOM
      1 C          62.4148   85.7047   11.5654 C.ar    1  UNL1        0.0859
      2 C          62.6075   84.2172   11.5761 C.ar    1  UNL1        0.0208
      3 C          63.5035   83.8742   12.7291 C.ar    1  UNL1        0.0223
      4 C          63.8647   85.1497   13.4310 C.ar    1  UNL1        0.1021
      5 C          64.7193   85.4272   14.6321 C.ar    1  UNL1        0.1209
      6 N          64.9010   86.8360   15.1139 N.ar    1  UNL1       -0.2093
      7 C          64.2281   87.9673   14.3947 C.ar    1  UNL1        0.2383
      8 N          63.3735   87.6898   13.1936 N.ar    1  UNL1       -0.1295
      9 N          63.1918   86.2810   12.7117 N.ar    1  UNL1       -0.2255
     10 C          61.7431   86.2267    9.1105 C.ar    1  UNL1        0.1401
     11 C          60.9182   87.0019    8.1262 C.ar    1  UNL1        0.0369
     12 C          59.9403   88.0300    8.6124 C.ar    1  UNL1        0.0031
     13 C          59.7872   88.2831   10.0830 C.ar    1  UNL1        0.0002
     14 C          60.6120   87.5079   11.0673 C.ar    1  UNL1        0.0045
     15 C          61.5899   86.4798   10.5811 C.ar    1  UNL1        0.0517
     16 C          62.7110   84.7754    7.1852 C.3     1  UNL1        0.2525
     17 O          62.7210   85.1986    8.6242 O.3     1  UNL1       -0.4714
     18 N          64.4098   89.3762   14.8766 N.pl3   1  UNL1       -0.2814
     19 H          64.2279   89.6019   15.8174 H       1  UNL1        0.1551
     20 C          64.8687   90.4410   13.9250 C.ar    1  UNL1        0.0506
     21 C          66.1633   91.1581   14.1694 C.ar    1  UNL1        0.0159
     22 C          66.6221   92.2230   13.2177 C.ar    1  UNL1        0.0158
     23 C          65.7863   92.5707   12.0217 C.ar    1  UNL1        0.0480
     24 C          64.4917   91.8537   11.7773 C.ar    1  UNL1        0.0158
     25 C          64.0328   90.7888   12.7289 C.ar    1  UNL1        0.0159
     26 N          66.2452   93.6356   11.0702 N.pl3   1  UNL1       -0.3046
     27 C          67.1043   93.2721    9.8955 C.3     1  UNL1        0.1081
     28 C          67.5632   94.3371    8.9439 C.3     1  UNL1        0.0938
     29 N          67.1629   95.7653    9.1670 N.3     1  UNL1       -0.2686
     30 C          67.6217   96.8302    8.2154 C.3     1  UNL1        0.0897
     31 C          66.3037   96.1287   10.3416 C.3     1  UNL1        0.0938
     32 C          65.8449   95.0639   11.2932 C.3     1  UNL1        0.1081
@<TRIPOS>BOND
     1    16    17    1
     2    17    10    1
     3    10    11   ar
     4    11    12   ar
     5    12    13   ar
     6    13    14   ar
     7    14    15   ar
     8    15     1    1
     9     1     2   ar
    10     2     3   ar
    11     3     4   ar
    12     4     5   ar
    13     5     6   ar
    14     6     7   ar
    15     7    18    1
    16    18    20    1
    17    20    21   ar
    18    21    22   ar
    19    22    23   ar
    20    23    26    1
    21    26    27    1
    22    27    28    1
    23    28    29    1
    24    29    30    1
    25    29    31    1
    26    31    32    1
    27    23    24   ar
    28    24    25   ar
    29     7     8   ar
    30     8     9   ar
    31    15    10   ar
    32     9     1   ar
    33     9     4   ar
    34    25    20   ar
    35    32    26    1
    36    18    19    1
@<TRIPOS>MOLECULE
*****
 32 36 0 0 0
SMALL
GASTEIGER

@<TRIPOS>ATOM
      1 C          63.2610   84.9037   11.5163 C.ar    1  UNL1        0.0859
      2 C          63.7642   83.5450   11.9046 C.ar    1  UNL1        0.0208
      3 C          64.3378   83.6409   13.2872 C.ar    1  UNL1        0.0223
      4 C          64.1890   85.0588   13.7536 C.ar    1  UNL1        0.1021
      5 C          64.5736   85.7400   15.0334 C.ar    1  UNL1        0.1209
      6 N          64.2927   87.2017   15.2187 N.ar    1  UNL1       -0.2093
      7 C          63.6272   87.9822   14.1242 C.ar    1  UNL1        0.2383
      8 N          63.2426   87.3010   12.8444 N.ar    1  UNL1       -0.1295
      9 N          63.5235   85.8393   12.6591 N.ar    1  UNL1       -0.2255
     10 C          61.4020   86.1535   10.2001 C.ar    1  UNL1        0.1401
     11 C          60.7505   86.5135    8.8978 C.ar    1  UNL1        0.0369
     12 C          61.3066   85.9837    7.6094 C.ar    1  UNL1        0.0031
     13 C          62.5141   85.0939    7.6233 C.ar    1  UNL1        0.0002
     14 C          63.1655   84.7339    8.9256 C.ar    1  UNL1        0.0045
     15 C          62.6095   85.2637   10.2140 C.ar    1  UNL1        0.0517
     16 C          60.0995   87.9843   11.5046 C.3     1  UNL1        0.2525
     17 O          60.8459   86.6834   11.4886 O.3     1  UNL1       -0.4714
     18 N          63.3462   89.4440   14.3095 N.pl3   1  UNL1       -0.2814
     19 H          62.7318   89.7411   15.0191 H       1  UNL1        0.1551
     20 C          64.0014   90.4531   13.4138 C.ar    1  UNL1        0.0506
     21 C          65.1953   91.2219   13.8971 C.ar    1  UNL1        0.0159
     22 C          65.8505   92.2310   13.0013 C.ar    1  UNL1        0.0158
     23 C          65.3117   92.4714   11.6222 C.ar    1  UNL1        0.0480
     24 C          64.1178   91.7027   11.1389 C.ar    1  UNL1        0.0158
     25 C          63.4626   90.6936   12.0346 C.ar    1  UNL1        0.0159
     26 N          65.9669   93.4805   10.7265 N.pl3   1  UNL1       -0.3046
     27 C          65.4711   94.8960   10.7025 C.3     1  UNL1        0.1081
     28 C          66.1263   95.9052    9.8067 C.3     1  UNL1        0.0938
     29 N          67.2773   95.4988    8.9349 N.3     1  UNL1       -0.2686
     30 C          67.9324   96.5079    8.0392 C.3     1  UNL1        0.0897
     31 C          67.7731   94.0833    8.9589 C.3     1  UNL1        0.0938
     32 C          67.1179   93.0742    9.8546 C.3     1  UNL1        0.1081
@<TRIPOS>BOND
     1    16    17    1
     2    17    10    1
     3    10    11   ar
     4    11    12   ar
     5    12    13   ar
     6    13    14   ar
     7    14    15   ar
     8    15     1    1
     9     1     2   ar
    10     2     3   ar
    11     3     4   ar
    12     4     5   ar
    13     5     6   ar
    14     6     7   ar
    15     7    18    1
    16    18    20    1
    17    20    21   ar
    18    21    22   ar
    19    22    23   ar
    20    23    26    1
    21    26    27    1
    22    27    28    1
    23    28    29    1
    24    29    30    1
    25    29    31    1
    26    31    32    1
    27    23    24   ar
    28    24    25   ar
    29     7     8   ar
    30     8     9   ar
    31    15    10   ar
    32     9     1   ar
    33     9     4   ar
    34    25    20   ar
    35    32    26    1
    36    18    19    1
@<TRIPOS>MOLECULE
*****
 32 36 0 0 0
SMALL
GASTEIGER

@<TRIPOS>ATOM
      1 C          66.2393   93.9905   12.4275 C.ar    1  UNL1        0.0859
      2 C          66.9479   94.4077   13.6820 C.ar    1  UNL1        0.0208
      3 C          66.5947   93.4278   14.7614 C.ar    1  UNL1        0.0223
      4 C          65.6679   92.4051   14.1740 C.ar    1  UNL1        0.1021
      5 C          64.9956   91.2021   14.7663 C.ar    1  UNL1        0.1209
      6 N          64.1036   90.3470   13.9160 N.ar    1  UNL1       -0.2093
      7 C          63.8839   90.6948   12.4736 C.ar    1  UNL1        0.2383
      8 N          64.5562   91.8977   11.8813 N.ar    1  UNL1       -0.1295
      9 N          65.4482   92.7529   12.7315 N.ar    1  UNL1       -0.2255
     10 C          67.1639   94.1282   10.0033 C.ar    1  UNL1        0.1401
     11 C          67.2341   94.8261    8.6775 C.ar    1  UNL1        0.0369
     12 C          66.4498   96.0843    8.4498 C.ar    1  UNL1        0.0031
     13 C          65.5954   96.6446    9.5480 C.ar    1  UNL1        0.0002
     14 C          65.5252   95.9466   10.8739 C.ar    1  UNL1        0.0045
     15 C          66.3094   94.6885   11.1016 C.ar    1  UNL1        0.0517
     16 C          68.7237   92.2552    9.1038 C.3     1  UNL1        0.2525
     17 O          67.9482   92.8700   10.2310 O.3     1  UNL1       -0.4714
     18 N          62.9918   89.8395   11.6233 N.pl3   1  UNL1       -0.2814
     19 H          62.4533   90.2489   10.9080 H       1  UNL1        0.1551
     20 C          62.9203   88.3605   11.8629 C.ar    1  UNL1        0.0506
     21 C          63.6064   87.7596   13.0537 C.ar    1  UNL1        0.0159
     22 C          63.5349   86.2805   13.2933 C.ar    1  UNL1        0.0158
     23 C          62.7771   85.4025   12.3420 C.ar    1  UNL1        0.0480
     24 C          62.0910   86.0034   11.1512 C.ar    1  UNL1        0.0158
     25 C          62.1625   87.4824   10.9116 C.ar    1  UNL1        0.0159
     26 N          62.7056   83.9235   12.5816 N.pl3   1  UNL1       -0.3046
     27 C          62.3628   83.4003   13.9450 C.3     1  UNL1        0.1081
     28 C          62.2912   81.9212   14.1845 C.3     1  UNL1        0.0938
     29 N          62.5625   80.9654   13.0608 N.3     1  UNL1       -0.2686
     30 C          62.4909   79.4865   13.3003 C.3     1  UNL1        0.0897
     31 C          62.9053   81.4887   11.6974 C.3     1  UNL1        0.0938
     32 C          62.9768   82.9676   11.4578 C.3     1  UNL1        0.1081
@<TRIPOS>BOND
     1    16    17    1
     2    17    10    1
     3    10    11   ar
     4    11    12   ar
     5    12    13   ar
     6    13    14   ar
     7    14    15   ar
     8    15     1    1
     9     1     2   ar
    10     2     3   ar
    11     3     4   ar
    12     4     5   ar
    13     5     6   ar
    14     6     7   ar
    15     7    18    1
    16    18    20    1
    17    20    21   ar
    18    21    22   ar
    19    22    23   ar
    20    23    26    1
    21    26    27    1
    22    27    28    1
    23    28    29    1
    24    29    30    1
    25    29    31    1
    26    31    32    1
    27    23    24   ar
    28    24    25   ar
    29     7     8   ar
    30     8     9   ar
    31    15    10   ar
    32     9     1   ar
    33     9     4   ar
    34    25    20   ar
    35    32    26    1
    36    18    19    1
@<TRIPOS>MOLECULE
*****
 32 36 0 0 0
SMALL
GASTEIGER

@<TRIPOS>ATOM
      1 C          63.3117   84.7167   12.5697 C.ar    1  UNL1        0.0859
      2 C          63.5978   83.3168   13.0260 C.ar    1  UNL1        0.0208
      3 C          63.9378   83.3656   14.4861 C.ar    1  UNL1        0.0223
      4 C          63.8619   84.7957   14.9322 C.ar    1  UNL1        0.1021
      5 C          64.0951   85.4454   16.2639 C.ar    1  UNL1        0.1209
      6 N          63.9413   86.9302   16.4112 N.ar    1  UNL1       -0.2093
      7 C          63.5544   87.7653   15.2267 C.ar    1  UNL1        0.2383
      8 N          63.3211   87.1156   13.8951 N.ar    1  UNL1       -0.1295
      9 N          63.4749   85.6308   13.7478 N.ar    1  UNL1       -0.2255
     10 C          63.5028   84.4061    9.9973 C.ar    1  UNL1        0.1401
     11 C          63.1206   84.8195    8.6069 C.ar    1  UNL1        0.0369
     12 C          62.1651   85.9569    8.3986 C.ar    1  UNL1        0.0031
     13 C          61.5919   86.6809    9.5807 C.ar    1  UNL1        0.0002
     14 C          61.9741   86.2675   10.9710 C.ar    1  UNL1        0.0045
     15 C          62.9295   85.1302   11.1794 C.ar    1  UNL1        0.0517
     16 C          63.9572   81.8550   10.1852 C.3     1  UNL1        0.2525
     17 O          64.4582   83.2687   10.2056 O.3     1  UNL1       -0.4714
     18 N          63.4006   89.2501   15.3741 N.pl3   1  UNL1       -0.2814
     19 H          62.8810   89.6192   16.1244 H       1  UNL1        0.1551
     20 C          64.0385   90.1726   14.3781 C.ar    1  UNL1        0.0506
     21 C          63.3900   90.4015   13.0451 C.ar    1  UNL1        0.0159
     22 C          64.0280   91.3241   12.0491 C.ar    1  UNL1        0.0158
     23 C          65.3145   92.0178   12.3862 C.ar    1  UNL1        0.0480
     24 C          65.9630   91.7889   13.7193 C.ar    1  UNL1        0.0158
     25 C          65.3251   90.8664   14.7152 C.ar    1  UNL1        0.0159
     26 N          65.9524   92.9403   11.3903 N.pl3   1  UNL1       -0.3046
     27 C          66.8673   92.3898   10.3368 C.3     1  UNL1        0.1081
     28 C          67.5052   93.3124    9.3408 C.3     1  UNL1        0.0938
     29 N          67.2283   94.7854    9.3984 N.3     1  UNL1       -0.2686
     30 C          67.8662   95.7080    8.4025 C.3     1  UNL1        0.0897
     31 C          66.3134   95.3360   10.4519 C.3     1  UNL1        0.0938
     32 C          65.6755   94.4134   11.4479 C.3     1  UNL1        0.1081
@<TRIPOS>BOND
     1    16    17    1
     2    17    10    1
     3    10    11   ar
     4    11    12   ar
     5    12    13   ar
     6    13    14   ar
     7    14    15   ar
     8    15     1    1
     9     1     2   ar
    10     2     3   ar
    11     3     4   ar
    12     4     5   ar
    13     5     6   ar
    14     6     7   ar
    15     7    18    1
    16    18    20    1
    17    20    21   ar
    18    21    22   ar
    19    22    23   ar
    20    23    26    1
    21    26    27    1
    22    27    28    1
    23    28    29    1
    24    29    30    1
    25    29    31    1
    26    31    32    1
    27    23    24   ar
    28    24    25   ar
    29     7     8   ar
    30     8     9   ar
    31    15    10   ar
    32     9     1   ar
    33     9     4   ar
    34    25    20   ar
    35    32    26    1
    36    18    19    1
@<TRIPOS>MOLECULE
*****
 32 36 0 0 0
SMALL
GASTEIGER

@<TRIPOS>ATOM
      1 C          62.7838   90.0186   10.9968 C.ar    1  UNL1        0.0859
      2 C          63.1376   91.4406   10.6762 C.ar    1  UNL1        0.0208
      3 C          63.9992   91.9654   11.7863 C.ar    1  UNL1        0.0223
      4 C          64.1778   90.8678   12.7929 C.ar    1  UNL1        0.1021
      5 C          64.9274   90.8085   14.0908 C.ar    1  UNL1        0.1209
      6 N          64.9258   89.5461   14.9008 N.ar    1  UNL1       -0.2093
      7 C          64.1747   88.3429   14.4128 C.ar    1  UNL1        0.2383
      8 N          63.4251   88.4021   13.1150 N.ar    1  UNL1       -0.1295
      9 N          63.4266   89.6646   12.3050 N.ar    1  UNL1       -0.2255
     10 C          60.5173   89.4846    9.8442 C.ar    1  UNL1        0.1401
     11 C          59.6695   88.5761    9.0041 C.ar    1  UNL1        0.0369
     12 C          60.2401   87.2932    8.4765 C.ar    1  UNL1        0.0031
     13 C          61.6586   86.9187    8.7889 C.ar    1  UNL1        0.0002
     14 C          62.5065   87.8272    9.6290 C.ar    1  UNL1        0.0045
     15 C          61.9359   89.1101   10.1567 C.ar    1  UNL1        0.0517
     16 C          59.0563   90.7520   11.5789 C.3     1  UNL1        0.2525
     17 O          59.9467   90.7675   10.3719 O.3     1  UNL1       -0.4714
     18 N          64.1731   87.0803   15.2229 N.pl3   1  UNL1       -0.2814
     19 H          64.3280   87.1186   16.1944 H       1  UNL1        0.1551
     20 C          63.9357   85.7596   14.5527 C.ar    1  UNL1        0.0506
     21 C          63.4707   85.7146   13.1273 C.ar    1  UNL1        0.0159
     22 C          63.2332   84.3938   12.4572 C.ar    1  UNL1        0.0158
     23 C          63.4607   83.1179   13.2124 C.ar    1  UNL1        0.0480
     24 C          63.9257   83.1629   14.6378 C.ar    1  UNL1        0.0158
     25 C          64.1632   84.4836   15.3080 C.ar    1  UNL1        0.0159
     26 N          63.2233   81.7972   12.5423 N.pl3   1  UNL1       -0.3046
     27 C          63.3938   81.6680   11.0576 C.3     1  UNL1        0.1081
     28 C          63.1563   80.3472   10.3875 C.3     1  UNL1        0.0938
     29 N          62.7483   79.1555   11.2020 N.3     1  UNL1       -0.2686
     30 C          62.5109   77.8348   10.5318 C.3     1  UNL1        0.0897
     31 C          62.5778   79.2847   12.6867 C.3     1  UNL1        0.0938
     32 C          62.8153   80.6054   13.3568 C.3     1  UNL1        0.1081
@<TRIPOS>BOND
     1    16    17    1
     2    17    10    1
     3    10    11   ar
     4    11    12   ar
     5    12    13   ar
     6    13    14   ar
     7    14    15   ar
     8    15     1    1
     9     1     2   ar
    10     2     3   ar
    11     3     4   ar
    12     4     5   ar
    13     5     6   ar
    14     6     7   ar
    15     7    18    1
    16    18    20    1
    17    20    21   ar
    18    21    22   ar
    19    22    23   ar
    20    23    26    1
    21    26    27    1
    22    27    28    1
    23    28    29    1
    24    29    30    1
    25    29    31    1
    26    31    32    1
    27    23    24   ar
    28    24    25   ar
    29     7     8   ar
    30     8     9   ar
    31    15    10   ar
    32     9     1   ar
    33     9     4   ar
    34    25    20   ar
    35    32    26    1
    36    18    19    1
@<TRIPOS>MOLECULE
*****
 32 36 0 0 0
SMALL
GASTEIGER

@<TRIPOS>ATOM
      1 C          62.1113   87.9626   10.2134 C.ar    1  UNL1        0.0859
      2 C          62.4876   86.5533   10.5631 C.ar    1  UNL1        0.0208
      3 C          61.6117   85.6293    9.7700 C.ar    1  UNL1        0.0223
      4 C          60.6941   86.4676    8.9301 C.ar    1  UNL1        0.1021
      5 C          59.6173   86.1040    7.9512 C.ar    1  UNL1        0.1209
      6 N          58.8493   87.1826    7.2464 N.ar    1  UNL1       -0.2093
      7 C          59.1581   88.6246    7.5204 C.ar    1  UNL1        0.2383
      8 N          60.2349   88.9882    8.4993 N.ar    1  UNL1       -0.1295
      9 N          61.0029   87.9096    9.2042 N.ar    1  UNL1       -0.2255
     10 C          63.2971   89.2020   12.1649 C.ar    1  UNL1        0.1401
     11 C          63.9199   90.4459   12.7259 C.ar    1  UNL1        0.0369
     12 C          63.9798   91.6944   11.8966 C.ar    1  UNL1        0.0031
     13 C          63.4168   91.6989   10.5062 C.ar    1  UNL1        0.0002
     14 C          62.7940   90.4550    9.9452 C.ar    1  UNL1        0.0045
     15 C          62.7341   89.2065   10.7744 C.ar    1  UNL1        0.0517
     16 C          64.1605   87.7854   14.1643 C.3     1  UNL1        0.2525
     17 O          63.2372   87.9535   12.9942 O.3     1  UNL1       -0.4714
     18 N          58.3900   89.7032    6.8155 N.pl3   1  UNL1       -0.2814
     19 H          57.4463   89.8655    7.0445 H       1  UNL1        0.1551
     20 C          59.0597   90.5345    5.7617 C.ar    1  UNL1        0.0506
     21 C          58.2578   91.5146    4.9577 C.ar    1  UNL1        0.0159
     22 C          58.9276   92.3459    3.9039 C.ar    1  UNL1        0.0158
     23 C          60.3991   92.1971    3.6542 C.ar    1  UNL1        0.0480
     24 C          61.2010   91.2169    4.4582 C.ar    1  UNL1        0.0158
     25 C          60.5313   90.3857    5.5119 C.ar    1  UNL1        0.0159
     26 N          61.0688   93.0283    2.6004 N.pl3   1  UNL1       -0.3046
     27 C          60.3855   94.2507    2.0628 C.3     1  UNL1        0.1081
     28 C          61.0553   95.0820    1.0090 C.3     1  UNL1        0.0938
     29 N          62.4083   94.6909    0.4929 N.3     1  UNL1       -0.2686
     30 C          63.0780   95.5222   -0.5609 C.3     1  UNL1        0.0897
     31 C          63.0916   93.4686    1.0305 C.3     1  UNL1        0.0938
     32 C          62.4219   92.6373    2.0842 C.3     1  UNL1        0.1081
@<TRIPOS>BOND
     1    16    17    1
     2    17    10    1
     3    10    11   ar
     4    11    12   ar
     5    12    13   ar
     6    13    14   ar
     7    14    15   ar
     8    15     1    1
     9     1     2   ar
    10     2     3   ar
    11     3     4   ar
    12     4     5   ar
    13     5     6   ar
    14     6     7   ar
    15     7    18    1
    16    18    20    1
    17    20    21   ar
    18    21    22   ar
    19    22    23   ar
    20    23    26    1
    21    26    27    1
    22    27    28    1
    23    28    29    1
    24    29    30    1
    25    29    31    1
    26    31    32    1
    27    23    24   ar
    28    24    25   ar
    29     7     8   ar
    30     8     9   ar
    31    15    10   ar
    32     9     1   ar
    33     9     4   ar
    34    25    20   ar
    35    32    26    1
    36    18    19    1
@<TRIPOS>MOLECULE
*****
 32 36 0 0 0
SMALL
GASTEIGER

@<TRIPOS>ATOM
      1 C          63.1179   84.2976   11.3451 C.ar    1  UNL1        0.0859
      2 C          63.2012   83.3148   10.2150 C.ar    1  UNL1        0.0208
      3 C          62.7751   84.0156    8.9591 C.ar    1  UNL1        0.0223
      4 C          62.4285   85.4315    9.3129 C.ar    1  UNL1        0.1021
      5 C          61.9474   86.5845    8.4829 C.ar    1  UNL1        0.1209
      6 N          61.6782   87.9118    9.1276 N.ar    1  UNL1       -0.2093
      7 C          61.8900   88.0861   10.6023 C.ar    1  UNL1        0.2383
      8 N          62.3712   86.9331   11.4323 N.ar    1  UNL1       -0.1295
      9 N          62.6404   85.6058   10.7876 N.ar    1  UNL1       -0.2255
     10 C          63.0527   82.7179   13.4068 C.ar    1  UNL1        0.1401
     11 C          63.3881   82.4412   14.8424 C.ar    1  UNL1        0.0369
     12 C          64.1241   83.4674   15.6519 C.ar    1  UNL1        0.0031
     13 C          64.5246   84.7703   15.0259 C.ar    1  UNL1        0.0002
     14 C          64.1892   85.0470   13.5903 C.ar    1  UNL1        0.0045
     15 C          63.4533   84.0209   12.7807 C.ar    1  UNL1        0.0517
     16 C          62.3952   80.2420   12.9740 C.3     1  UNL1        0.2525
     17 O          62.3168   81.6917   12.5973 O.3     1  UNL1       -0.4714
     18 N          61.6208   89.4136   11.2469 N.pl3   1  UNL1       -0.2814
     19 H          60.7231   89.8141   11.1927 H       1  UNL1        0.1551
     20 C          62.7193   90.1307   11.9742 C.ar    1  UNL1        0.0506
     21 C          62.9937   89.8177   13.4153 C.ar    1  UNL1        0.0159
     22 C          64.0922   90.5349   14.1426 C.ar    1  UNL1        0.0158
     23 C          64.9163   91.5651   13.4288 C.ar    1  UNL1        0.0480
     24 C          64.6419   91.8781   11.9877 C.ar    1  UNL1        0.0158
     25 C          63.5434   91.1610   11.2604 C.ar    1  UNL1        0.0159
     26 N          66.0148   92.2822   14.1560 N.pl3   1  UNL1       -0.3046
     27 C          66.3718   93.6888   13.7766 C.3     1  UNL1        0.1081
     28 C          67.4704   94.4060   14.5040 C.3     1  UNL1        0.0938
     29 N          68.2118   93.7165   15.6107 N.3     1  UNL1       -0.2686
     30 C          69.3103   94.4337   16.3380 C.3     1  UNL1        0.0897
     31 C          67.8548   92.3099   15.9901 C.3     1  UNL1        0.0938
     32 C          66.7563   91.5928   15.2628 C.3     1  UNL1        0.1081
@<TRIPOS>BOND
     1    16    17    1
     2    17    10    1
     3    10    11   ar
     4    11    12   ar
     5    12    13   ar
     6    13    14   ar
     7    14    15   ar
     8    15     1    1
     9     1     2   ar
    10     2     3   ar
    11     3     4   ar
    12     4     5   ar
    13     5     6   ar
    14     6     7   ar
    15     7    18    1
    16    18    20    1
    17    20    21   ar
    18    21    22   ar
    19    22    23   ar
    20    23    26    1
    21    26    27    1
    22    27    28    1
    23    28    29    1
    24    29    30    1
    25    29    31    1
    26    31    32    1
    27    23    24   ar
    28    24    25   ar
    29     7     8   ar
    30     8     9   ar
    31    15    10   ar
    32     9     1   ar
    33     9     4   ar
    34    25    20   ar
    35    32    26    1
    36    18    19    1
@<TRIPOS>MOLECULE
*****
 32 36 0 0 0
SMALL
GASTEIGER

@<TRIPOS>ATOM
      1 C          62.9358   83.6811   11.1355 C.ar    1  UNL1        0.0859
      2 C          63.2106   82.9807    9.8378 C.ar    1  UNL1        0.0208
      3 C          63.1351   83.9973    8.7374 C.ar    1  UNL1        0.0223
      4 C          62.8136   85.3259    9.3550 C.ar    1  UNL1        0.1021
      5 C          62.6171   86.6884    8.7593 C.ar    1  UNL1        0.1209
      6 N          62.2974   87.8555    9.6456 N.ar    1  UNL1       -0.2093
      7 C          62.1742   87.6601   11.1277 C.ar    1  UNL1        0.2383
      8 N          62.3707   86.2976   11.7235 N.ar    1  UNL1       -0.1295
      9 N          62.6904   85.1305   10.8371 N.ar    1  UNL1       -0.2255
     10 C          63.7315   83.6215   13.6080 C.ar    1  UNL1        0.1401
     11 C          63.7064   82.9844   14.9658 C.ar    1  UNL1        0.0369
     12 C          62.8606   81.7697   15.2087 C.ar    1  UNL1        0.0031
     13 C          62.0399   81.1921   14.0939 C.ar    1  UNL1        0.0002
     14 C          62.0649   81.8293   12.7362 C.ar    1  UNL1        0.0045
     15 C          62.9107   83.0439   12.4932 C.ar    1  UNL1        0.0517
     16 C          64.6550   85.9160   14.4034 C.3     1  UNL1        0.2525
     17 O          64.5773   84.8363   13.3651 O.3     1  UNL1       -0.4714
     18 N          61.8544   88.8272   12.0141 N.pl3   1  UNL1       -0.2814
     19 H          60.9165   89.0611   12.2009 H       1  UNL1        0.1551
     20 C          62.9637   89.6380   12.6159 C.ar    1  UNL1        0.0506
     21 C          63.4204   90.8991   11.9444 C.ar    1  UNL1        0.0159
     22 C          64.5297   91.7099   12.5462 C.ar    1  UNL1        0.0158
     23 C          65.1822   91.2595   13.8195 C.ar    1  UNL1        0.0480
     24 C          64.7255   89.9984   14.4911 C.ar    1  UNL1        0.0158
     25 C          63.6162   89.1876   13.8893 C.ar    1  UNL1        0.0159
     26 N          66.2915   92.0703   14.4213 N.pl3   1  UNL1       -0.3046
     27 C          66.3792   93.5422   14.1460 C.3     1  UNL1        0.1081
     28 C          67.4885   94.3530   14.7478 C.3     1  UNL1        0.0938
     29 N          68.5100   93.6918   15.6249 N.3     1  UNL1       -0.2686
     30 C          69.6193   94.5026   16.2267 C.3     1  UNL1        0.0897
     31 C          68.4223   92.2199   15.9002 C.3     1  UNL1        0.0938
     32 C          67.3131   91.4092   15.2985 C.3     1  UNL1        0.1081
@<TRIPOS>BOND
     1    16    17    1
     2    17    10    1
     3    10    11   ar
     4    11    12   ar
     5    12    13   ar
     6    13    14   ar
     7    14    15   ar
     8    15     1    1
     9     1     2   ar
    10     2     3   ar
    11     3     4   ar
    12     4     5   ar
    13     5     6   ar
    14     6     7   ar
    15     7    18    1
    16    18    20    1
    17    20    21   ar
    18    21    22   ar
    19    22    23   ar
    20    23    26    1
    21    26    27    1
    22    27    28    1
    23    28    29    1
    24    29    30    1
    25    29    31    1
    26    31    32    1
    27    23    24   ar
    28    24    25   ar
    29     7     8   ar
    30     8     9   ar
    31    15    10   ar
    32     9     1   ar
    33     9     4   ar
    34    25    20   ar
    35    32    26    1
    36    18    19    1
