@<TRIPOS>MOLECULE
*****
 32 35 0 0 0
SMALL
GASTEIGER

@<TRIPOS>ATOM
      1 C          63.6607   90.8852   14.5112 C.2     1  UNL1        0.2505
      2 O          63.6439   92.0801   15.4179 O.2     1  UNL1       -0.2699
      3 N          63.5728   89.5039   15.0892 N.am    1  UNL1       -0.2767
      4 C          63.5896   88.3090   14.1825 C.3     1  UNL1        0.1065
      5 C          63.5016   86.9276   14.7606 C.3     1  UNL1        0.0843
      6 C          63.3968   86.7412   16.2452 C.3     1  UNL1        0.0164
      7 C          63.3800   87.9360   17.1519 C.3     1  UNL1        0.0209
      8 C          63.4680   89.3174   16.5739 C.3     1  UNL1        0.0758
      9 C          63.4512   90.5122   17.4806 C.3     1  UNL1        0.0215
     10 C          61.7315   90.1735    9.7392 C.3     1  UNL1        0.0310
     11 C          62.8009   90.7159   10.6405 C.ar    1  UNL1       -0.0216
     12 C          63.9749   91.4448   10.0572 C.ar    1  UNL1       -0.0026
     13 C          65.0442   91.9871   10.9585 C.ar    1  UNL1        0.0207
     14 C          64.9395   91.8007   12.4432 C.ar    1  UNL1        0.1072
     15 C          63.7655   91.0718   13.0265 C.ar    1  UNL1        0.0726
     16 C          62.6962   90.5294   12.1252 C.ar    1  UNL1        0.0018
     17 N          66.0088   92.3430   13.3445 N.ar    1  UNL1       -0.1477
     18 N          66.0893   93.7445   13.8730 N.ar    1  UNL1       -0.1447
     19 C          67.3156   93.8468   14.7307 C.ar    1  UNL1        0.1446
     20 C          67.9931   92.5086   14.7322 C.ar    1  UNL1        0.1446
     21 N          67.1855   91.5792   13.8755 N.ar    1  UNL1       -0.1447
     22 C          63.5184   85.7328   13.8540 C.1     1  UNL1       -0.0857
     23 C          63.5352   84.5379   12.9473 C.1     1  UNL1       -0.0644
     24 C          63.5520   83.3430   12.0407 C.ar    1  UNL1        0.0414
     25 C          64.0969   83.4656   10.6485 C.ar    1  UNL1        0.0082
     26 C          64.1137   82.2707    9.7418 C.ar    1  UNL1        0.0004
     27 C          63.5856   80.9533   10.2274 C.ar    1  UNL1       -0.0018
     28 C          63.0407   80.8309   11.6195 C.ar    1  UNL1        0.0076
     29 C          63.0239   82.0257   12.5261 C.ar    1  UNL1        0.0064
     30 C          62.5126   79.5135   12.1050 C.3     1  UNL1        0.1636
     31 O          62.1459   79.3387   13.5489 O.3     1  UNL1       -0.3772
     32 H          62.9444   79.4048   14.0956 H       1  UNL1        0.2109
@<TRIPOS>BOND
     1    10    11    1
     2    11    12   ar
     3    12    13   ar
     4    13    14   ar
     5    14    17    1
     6    17    18   ar
     7    18    19   ar
     8    19    20   ar
     9    20    21   ar
    10    14    15   ar
    11    15     1    1
    12     1     2    2
    13     1     3   am
    14     3     4    1
    15     4     5    1
    16     5    22    1
    17    22    23    3
    18    23    24    1
    19    24    25   ar
    20    25    26   ar
    21    26    27   ar
    22    27    28   ar
    23    28    30    1
    24    30    31    1
    25    28    29   ar
    26     5     6    1
    27     6     7    1
    28     7     8    1
    29     8     9    1
    30    15    16   ar
    31    16    11   ar
    32    21    17   ar
    33     8     3    1
    34    29    24   ar
    35    31    32    1
@<TRIPOS>MOLECULE
*****
 32 35 0 0 0
SMALL
GASTEIGER

@<TRIPOS>ATOM
      1 C          62.6260   85.6239   13.5114 C.2     1  UNL1        0.2505
      2 O          62.0767   84.4571   14.2775 O.2     1  UNL1       -0.2699
      3 N          63.1719   86.8128   14.2451 N.am    1  UNL1       -0.2767
      4 C          63.7212   87.9796   13.4790 C.3     1  UNL1        0.1065
      5 C          64.2672   89.1686   14.2128 C.3     1  UNL1        0.0843
      6 C          64.2639   89.1907   15.7126 C.3     1  UNL1        0.0164
      7 C          63.7147   88.0239   16.4787 C.3     1  UNL1        0.0209
      8 C          63.1687   86.8350   15.7450 C.3     1  UNL1        0.0758
      9 C          62.6194   85.6682   16.5111 C.3     1  UNL1        0.0215
     10 C          61.9468   88.0624    8.9734 C.3     1  UNL1        0.0310
     11 C          62.2896   86.8210    9.7426 C.ar    1  UNL1       -0.0216
     12 C          62.6357   85.5576    9.0119 C.ar    1  UNL1       -0.0026
     13 C          62.9785   84.3162    9.7810 C.ar    1  UNL1        0.0207
     14 C          62.9753   84.3383   11.2808 C.ar    1  UNL1        0.1072
     15 C          62.6292   85.6018   12.0115 C.ar    1  UNL1        0.0726
     16 C          62.2864   86.8431   11.2424 C.ar    1  UNL1        0.0018
     17 N          63.3181   83.0970   12.0500 N.ar    1  UNL1       -0.1477
     18 N          62.4248   81.9087   12.2498 N.ar    1  UNL1       -0.1447
     19 C          63.1690   80.9033   13.0776 C.ar    1  UNL1        0.1446
     20 C          64.5222   81.4702   13.3895 C.ar    1  UNL1        0.1446
     21 N          64.6143   82.8260   12.7544 N.ar    1  UNL1       -0.1447
     22 C          64.8165   90.3354   13.4467 C.1     1  UNL1       -0.0857
     23 C          65.3657   91.5022   12.6806 C.1     1  UNL1       -0.0644
     24 C          65.9150   92.6690   11.9145 C.ar    1  UNL1        0.0414
     25 C          65.7199   94.0639   12.4306 C.ar    1  UNL1        0.0082
     26 C          66.2691   95.2306   11.6645 C.ar    1  UNL1        0.0004
     27 C          67.0135   95.0025   10.3823 C.ar    1  UNL1       -0.0018
     28 C          67.2086   93.6077    9.8663 C.ar    1  UNL1        0.0076
     29 C          66.6594   92.4409   10.6324 C.ar    1  UNL1        0.0064
     30 C          67.9530   93.3797    8.5841 C.3     1  UNL1        0.1636
     31 O          68.7119   92.1029    8.3744 O.3     1  UNL1       -0.3772
     32 H          69.4509   92.0594    9.0011 H       1  UNL1        0.2109
@<TRIPOS>BOND
     1    10    11    1
     2    11    12   ar
     3    12    13   ar
     4    13    14   ar
     5    14    17    1
     6    17    18   ar
     7    18    19   ar
     8    19    20   ar
     9    20    21   ar
    10    14    15   ar
    11    15     1    1
    12     1     2    2
    13     1     3   am
    14     3     4    1
    15     4     5    1
    16     5    22    1
    17    22    23    3
    18    23    24    1
    19    24    25   ar
    20    25    26   ar
    21    26    27   ar
    22    27    28   ar
    23    28    30    1
    24    30    31    1
    25    28    29   ar
    26     5     6    1
    27     6     7    1
    28     7     8    1
    29     8     9    1
    30    15    16   ar
    31    16    11   ar
    32    21    17   ar
    33     8     3    1
    34    29    24   ar
    35    31    32    1
@<TRIPOS>MOLECULE
*****
 32 35 0 0 0
SMALL
GASTEIGER

@<TRIPOS>ATOM
      1 C          62.4444   84.6717   12.8849 C.2     1  UNL1        0.2505
      2 O          61.9101   83.3077   13.2072 O.2     1  UNL1       -0.2699
      3 N          62.9726   85.5487   13.9811 N.am    1  UNL1       -0.2767
      4 C          63.5069   86.9127   13.6588 C.3     1  UNL1        0.1065
      5 C          64.0351   87.7897   14.7552 C.3     1  UNL1        0.0843
      6 C          64.0291   87.3026   16.1738 C.3     1  UNL1        0.0164
      7 C          63.4947   85.9386   16.4962 C.3     1  UNL1        0.0209
      8 C          62.9665   85.0616   15.3999 C.3     1  UNL1        0.0758
      9 C          62.4322   83.6976   15.7223 C.3     1  UNL1        0.0215
     10 C          61.4871   88.4117    9.4069 C.3     1  UNL1        0.0310
     11 C          61.9718   87.0288    9.7272 C.ar    1  UNL1       -0.0216
     12 C          62.4626   86.1330    8.6288 C.ar    1  UNL1       -0.0026
     13 C          62.9473   84.7500    8.9490 C.ar    1  UNL1        0.0207
     14 C          62.9412   84.2629   10.3677 C.ar    1  UNL1        0.1072
     15 C          62.4505   85.1588   11.4661 C.ar    1  UNL1        0.0726
     16 C          61.9658   86.5417   11.1458 C.ar    1  UNL1        0.0018
     17 N          63.4259   82.8800   10.6879 N.ar    1  UNL1       -0.1477
     18 N          64.6107   82.5366   11.5413 N.ar    1  UNL1       -0.1447
     19 C          64.7280   81.0420   11.5918 C.ar    1  UNL1        0.1446
     20 C          63.6156   80.4617   10.7697 C.ar    1  UNL1        0.1446
     21 N          62.8109   81.5977   10.2111 N.ar    1  UNL1       -0.1447
     22 C          64.5695   89.1537   14.4328 C.1     1  UNL1       -0.0857
     23 C          65.1038   90.5177   14.1104 C.1     1  UNL1       -0.0644
     24 C          65.6381   91.8818   13.7880 C.ar    1  UNL1        0.0414
     25 C          66.3907   92.6576   14.8282 C.ar    1  UNL1        0.0082
     26 C          66.9250   94.0216   14.5058 C.ar    1  UNL1        0.0004
     27 C          66.7067   94.6098   13.1432 C.ar    1  UNL1       -0.0018
     28 C          65.9541   93.8341   12.1032 C.ar    1  UNL1        0.0076
     29 C          65.4198   92.4700   12.4256 C.ar    1  UNL1        0.0064
     30 C          65.7359   94.4223   10.7407 C.3     1  UNL1        0.1636
     31 O          65.1453   95.7941   10.6019 O.3     1  UNL1       -0.3772
     32 H          64.2303   95.7863   10.9238 H       1  UNL1        0.2109
@<TRIPOS>BOND
     1    10    11    1
     2    11    12   ar
     3    12    13   ar
     4    13    14   ar
     5    14    17    1
     6    17    18   ar
     7    18    19   ar
     8    19    20   ar
     9    20    21   ar
    10    14    15   ar
    11    15     1    1
    12     1     2    2
    13     1     3   am
    14     3     4    1
    15     4     5    1
    16     5    22    1
    17    22    23    3
    18    23    24    1
    19    24    25   ar
    20    25    26   ar
    21    26    27   ar
    22    27    28   ar
    23    28    30    1
    24    30    31    1
    25    28    29   ar
    26     5     6    1
    27     6     7    1
    28     7     8    1
    29     8     9    1
    30    15    16   ar
    31    16    11   ar
    32    21    17   ar
    33     8     3    1
    34    29    24   ar
    35    31    32    1
@<TRIPOS>MOLECULE
*****
 32 35 0 0 0
SMALL
GASTEIGER

@<TRIPOS>ATOM
      1 C          62.9660   90.6861   11.7121 C.2     1  UNL1        0.2505
      2 O          62.7721   92.0287   11.0718 O.2     1  UNL1       -0.2699
      3 N          62.4858   89.4470   11.0165 N.am    1  UNL1       -0.2767
      4 C          62.6797   88.1045   11.6567 C.3     1  UNL1        0.1065
      5 C          62.1994   86.8654   10.9610 C.3     1  UNL1        0.0843
      6 C          61.5252   86.9688    9.6251 C.3     1  UNL1        0.0164
      7 C          61.3312   88.3114    8.9849 C.3     1  UNL1        0.0209
      8 C          61.8115   89.5505    9.6805 C.3     1  UNL1        0.0758
      9 C          61.6175   90.8930    9.0402 C.3     1  UNL1        0.0215
     10 C          63.1947   88.6629   16.4927 C.3     1  UNL1        0.0310
     11 C          63.7546   89.5711   15.4383 C.ar    1  UNL1       -0.0216
     12 C          64.9887   90.3759   15.7199 C.ar    1  UNL1       -0.0026
     13 C          65.5486   91.2840   14.6655 C.ar    1  UNL1        0.0207
     14 C          64.8744   91.3875   13.3296 C.ar    1  UNL1        0.1072
     15 C          63.6403   90.5827   13.0480 C.ar    1  UNL1        0.0726
     16 C          63.0804   89.6745   14.1024 C.ar    1  UNL1        0.0018
     17 N          65.4343   92.2957   12.2752 N.ar    1  UNL1       -0.1477
     18 N          65.7280   91.9198   10.8531 N.ar    1  UNL1       -0.1447
     19 C          66.2740   93.1310   10.1568 C.ar    1  UNL1        0.1446
     20 C          66.3179   94.2555   11.1486 C.ar    1  UNL1        0.1446
     21 N          65.7989   93.7392   12.4578 N.ar    1  UNL1       -0.1447
     22 C          62.3933   85.5228   11.6013 C.1     1  UNL1       -0.0857
     23 C          62.5873   84.1803   12.2416 C.1     1  UNL1       -0.0644
     24 C          62.7812   82.8377   12.8819 C.ar    1  UNL1        0.0414
     25 C          64.1629   82.3586   13.2158 C.ar    1  UNL1        0.0082
     26 C          64.3569   81.0161   13.8560 C.ar    1  UNL1        0.0004
     27 C          63.1691   80.1526   14.1624 C.ar    1  UNL1       -0.0018
     28 C          61.7875   80.6318   13.8285 C.ar    1  UNL1        0.0076
     29 C          61.5936   81.9743   13.1883 C.ar    1  UNL1        0.0064
     30 C          60.5999   79.7683   14.1349 C.3     1  UNL1        0.1636
     31 O          59.2770   80.3987   14.4553 O.3     1  UNL1       -0.3772
     32 H          59.3446   80.8847   15.2921 H       1  UNL1        0.2109
@<TRIPOS>BOND
     1    10    11    1
     2    11    12   ar
     3    12    13   ar
     4    13    14   ar
     5    14    17    1
     6    17    18   ar
     7    18    19   ar
     8    19    20   ar
     9    20    21   ar
    10    14    15   ar
    11    15     1    1
    12     1     2    2
    13     1     3   am
    14     3     4    1
    15     4     5    1
    16     5    22    1
    17    22    23    3
    18    23    24    1
    19    24    25   ar
    20    25    26   ar
    21    26    27   ar
    22    27    28   ar
    23    28    30    1
    24    30    31    1
    25    28    29   ar
    26     5     6    1
    27     6     7    1
    28     7     8    1
    29     8     9    1
    30    15    16   ar
    31    16    11   ar
    32    21    17   ar
    33     8     3    1
    34    29    24   ar
    35    31    32    1
@<TRIPOS>MOLECULE
*****
 32 35 0 0 0
SMALL
GASTEIGER

@<TRIPOS>ATOM
      1 C          63.1896   90.2527   14.1746 C.2     1  UNL1        0.2505
      2 O          63.3249   91.6160   14.7855 O.2     1  UNL1       -0.2699
      3 N          63.2134   89.0336   15.0483 N.am    1  UNL1       -0.2767
      4 C          63.0781   87.6704   14.4374 C.3     1  UNL1        0.1065
      5 C          63.1019   86.4513   15.3112 C.3     1  UNL1        0.0843
      6 C          63.2609   86.5956   16.7957 C.3     1  UNL1        0.0164
      7 C          63.3961   87.9588   17.4066 C.3     1  UNL1        0.0209
      8 C          63.3724   89.1779   16.5329 C.3     1  UNL1        0.0758
      9 C          63.5076   90.5412   17.1437 C.3     1  UNL1        0.0215
     10 C          60.7605   88.1462   10.0927 C.3     1  UNL1        0.0310
     11 C          61.8160   89.0552   10.6491 C.ar    1  UNL1       -0.0216
     12 C          62.7125   89.8199    9.7210 C.ar    1  UNL1       -0.0026
     13 C          63.7680   90.7289   10.2774 C.ar    1  UNL1        0.0207
     14 C          63.9271   90.8732   11.7619 C.ar    1  UNL1        0.1072
     15 C          63.0306   90.1084   12.6900 C.ar    1  UNL1        0.0726
     16 C          61.9750   89.1995   12.1336 C.ar    1  UNL1        0.0018
     17 N          64.9826   91.7822   12.3183 N.ar    1  UNL1       -0.1477
     18 N          65.9527   91.4420   13.4106 N.ar    1  UNL1       -0.1447
     19 C          66.8231   92.6405   13.6475 C.ar    1  UNL1        0.1446
     20 C          66.3909   93.7214   12.7016 C.ar    1  UNL1        0.1446
     21 N          65.2534   93.1909   11.8801 N.ar    1  UNL1       -0.1447
     22 C          62.9666   85.0880   14.7004 C.1     1  UNL1       -0.0857
     23 C          62.8314   83.7247   14.0895 C.1     1  UNL1       -0.0644
     24 C          62.6961   82.3614   13.4787 C.ar    1  UNL1        0.0414
     25 C          62.2421   81.2047   14.3190 C.ar    1  UNL1        0.0082
     26 C          62.1068   79.8414   13.7081 C.ar    1  UNL1        0.0004
     27 C          62.4256   79.6348   12.2570 C.ar    1  UNL1       -0.0018
     28 C          62.8797   80.7914   11.4168 C.ar    1  UNL1        0.0076
     29 C          63.0149   82.1547   12.0276 C.ar    1  UNL1        0.0064
     30 C          63.1985   80.5848    9.9657 C.3     1  UNL1        0.1636
     31 O          62.9412   79.2539    9.3234 O.3     1  UNL1       -0.3772
     32 H          63.5271   78.5873    9.7149 H       1  UNL1        0.2109
@<TRIPOS>BOND
     1    10    11    1
     2    11    12   ar
     3    12    13   ar
     4    13    14   ar
     5    14    17    1
     6    17    18   ar
     7    18    19   ar
     8    19    20   ar
     9    20    21   ar
    10    14    15   ar
    11    15     1    1
    12     1     2    2
    13     1     3   am
    14     3     4    1
    15     4     5    1
    16     5    22    1
    17    22    23    3
    18    23    24    1
    19    24    25   ar
    20    25    26   ar
    21    26    27   ar
    22    27    28   ar
    23    28    30    1
    24    30    31    1
    25    28    29   ar
    26     5     6    1
    27     6     7    1
    28     7     8    1
    29     8     9    1
    30    15    16   ar
    31    16    11   ar
    32    21    17   ar
    33     8     3    1
    34    29    24   ar
    35    31    32    1
@<TRIPOS>MOLECULE
*****
 32 35 0 0 0
SMALL
GASTEIGER

@<TRIPOS>ATOM
      1 C          62.6902   86.0141   13.7003 C.2     1  UNL1        0.2505
      2 O          62.0480   85.0128   14.6140 O.2     1  UNL1       -0.2699
      3 N          63.1784   87.3230   14.2466 N.am    1  UNL1       -0.2767
      4 C          63.8206   88.3243   13.3328 C.3     1  UNL1        0.1065
      5 C          64.3089   89.6332   13.8792 C.3     1  UNL1        0.0843
      6 C          64.1549   89.9408   15.3392 C.3     1  UNL1        0.0164
      7 C          63.5127   88.9394   16.2529 C.3     1  UNL1        0.0209
      8 C          63.0245   87.6305   15.7066 C.3     1  UNL1        0.0758
      9 C          62.3823   86.6292   16.6204 C.3     1  UNL1        0.0215
     10 C          64.6092   83.0227    9.9097 C.3     1  UNL1        0.0310
     11 C          63.8037   84.2108   10.3449 C.ar    1  UNL1       -0.0216
     12 C          63.1522   85.0913    9.3202 C.ar    1  UNL1       -0.0026
     13 C          62.3467   86.2795    9.7555 C.ar    1  UNL1        0.0207
     14 C          62.1927   86.5871   11.2155 C.ar    1  UNL1        0.1072
     15 C          62.8442   85.7065   12.2402 C.ar    1  UNL1        0.0726
     16 C          63.6497   84.5184   11.8049 C.ar    1  UNL1        0.0018
     17 N          61.3871   87.7752   11.6507 N.ar    1  UNL1       -0.1477
     18 N          61.8619   89.1977   11.6849 N.ar    1  UNL1       -0.1447
     19 C          60.7336   90.0511   12.1836 C.ar    1  UNL1        0.1446
     20 C          59.5615   89.1561   12.4575 C.ar    1  UNL1        0.1446
     21 N          59.9654   87.7495   12.1282 N.ar    1  UNL1       -0.1447
     22 C          64.9510   90.6346   12.9655 C.1     1  UNL1       -0.0857
     23 C          65.5932   91.6359   12.0518 C.1     1  UNL1       -0.0644
     24 C          66.2354   92.6373   11.1380 C.ar    1  UNL1        0.0414
     25 C          67.3183   92.2051   10.1943 C.ar    1  UNL1        0.0082
     26 C          67.9605   93.2064    9.2805 C.ar    1  UNL1        0.0004
     27 C          67.5198   94.6400    9.3106 C.ar    1  UNL1       -0.0018
     28 C          66.4370   95.0721   10.2543 C.ar    1  UNL1        0.0076
     29 C          65.7948   94.0708   11.1681 C.ar    1  UNL1        0.0064
     30 C          65.9964   96.5056   10.2843 C.3     1  UNL1        0.1636
     31 O          64.5975   96.8517   10.7007 O.3     1  UNL1       -0.3772
     32 H          63.9702   96.5027   10.0482 H       1  UNL1        0.2109
@<TRIPOS>BOND
     1    10    11    1
     2    11    12   ar
     3    12    13   ar
     4    13    14   ar
     5    14    17    1
     6    17    18   ar
     7    18    19   ar
     8    19    20   ar
     9    20    21   ar
    10    14    15   ar
    11    15     1    1
    12     1     2    2
    13     1     3   am
    14     3     4    1
    15     4     5    1
    16     5    22    1
    17    22    23    3
    18    23    24    1
    19    24    25   ar
    20    25    26   ar
    21    26    27   ar
    22    27    28   ar
    23    28    30    1
    24    30    31    1
    25    28    29   ar
    26     5     6    1
    27     6     7    1
    28     7     8    1
    29     8     9    1
    30    15    16   ar
    31    16    11   ar
    32    21    17   ar
    33     8     3    1
    34    29    24   ar
    35    31    32    1
@<TRIPOS>MOLECULE
*****
 32 35 0 0 0
SMALL
GASTEIGER

@<TRIPOS>ATOM
      1 C          64.5173   91.6744   14.8860 C.2     1  UNL1        0.2505
      2 O          64.5223   92.8454   15.8234 O.2     1  UNL1       -0.2699
      3 N          64.0947   90.3218   15.3778 N.am    1  UNL1       -0.2767
      4 C          64.0897   89.1508   14.4404 C.3     1  UNL1        0.1065
      5 C          63.6671   87.7982   14.9323 C.3     1  UNL1        0.0843
      6 C          63.2496   87.6166   16.3615 C.3     1  UNL1        0.0164
      7 C          63.2547   88.7876   17.2989 C.3     1  UNL1        0.0209
      8 C          63.6772   90.1402   16.8071 C.3     1  UNL1        0.0758
      9 C          63.6822   91.3112   17.7445 C.3     1  UNL1        0.0215
     10 C          63.4196   91.4385    9.8125 C.3     1  UNL1        0.0310
     11 C          64.3860   91.7380   10.9200 C.ar    1  UNL1       -0.0216
     12 C          65.7698   92.2192   10.5983 C.ar    1  UNL1       -0.0026
     13 C          66.7361   92.5187   11.7057 C.ar    1  UNL1        0.0207
     14 C          66.3186   92.3371   13.1350 C.ar    1  UNL1        0.1072
     15 C          64.9348   91.8560   13.4567 C.ar    1  UNL1        0.0726
     16 C          63.9685   91.5565   12.3492 C.ar    1  UNL1        0.0018
     17 N          67.2849   92.6367   14.2424 N.ar    1  UNL1       -0.1477
     18 N          67.6908   94.0018   14.7132 N.ar    1  UNL1       -0.1447
     19 C          68.6718   93.8325   15.8353 C.ar    1  UNL1        0.1446
     20 C          68.8722   92.3627   16.0580 C.ar    1  UNL1        0.1446
     21 N          68.0151   91.6237   15.0736 N.ar    1  UNL1       -0.1447
     22 C          63.6621   86.6271   13.9949 C.1     1  UNL1       -0.0857
     23 C          63.6571   85.4561   13.0576 C.1     1  UNL1       -0.0644
     24 C          63.6520   84.2851   12.1202 C.ar    1  UNL1        0.0414
     25 C          63.8760   82.8996   12.6497 C.ar    1  UNL1        0.0082
     26 C          63.8710   81.7285   11.7123 C.ar    1  UNL1        0.0004
     27 C          63.6420   81.9430   10.2454 C.ar    1  UNL1       -0.0018
     28 C          63.4180   83.3285    9.7160 C.ar    1  UNL1        0.0076
     29 C          63.4230   84.4995   10.6534 C.ar    1  UNL1        0.0064
     30 C          63.1890   83.5429    8.2492 C.3     1  UNL1        0.1636
     31 O          62.9182   84.9224    7.7262 O.3     1  UNL1       -0.3772
     32 H          62.0682   85.2379    8.0710 H       1  UNL1        0.2109
@<TRIPOS>BOND
     1    10    11    1
     2    11    12   ar
     3    12    13   ar
     4    13    14   ar
     5    14    17    1
     6    17    18   ar
     7    18    19   ar
     8    19    20   ar
     9    20    21   ar
    10    14    15   ar
    11    15     1    1
    12     1     2    2
    13     1     3   am
    14     3     4    1
    15     4     5    1
    16     5    22    1
    17    22    23    3
    18    23    24    1
    19    24    25   ar
    20    25    26   ar
    21    26    27   ar
    22    27    28   ar
    23    28    30    1
    24    30    31    1
    25    28    29   ar
    26     5     6    1
    27     6     7    1
    28     7     8    1
    29     8     9    1
    30    15    16   ar
    31    16    11   ar
    32    21    17   ar
    33     8     3    1
    34    29    24   ar
    35    31    32    1
@<TRIPOS>MOLECULE
*****
 32 35 0 0 0
SMALL
GASTEIGER

@<TRIPOS>ATOM
      1 C          62.6109   85.9370   13.5454 C.2     1  UNL1        0.2505
      2 O          61.9884   84.8650   14.3899 O.2     1  UNL1       -0.2699
      3 N          63.0983   87.2048   14.1818 N.am    1  UNL1       -0.2767
      4 C          63.7208   88.2768   13.3372 C.3     1  UNL1        0.1065
      5 C          64.2082   89.5447   13.9737 C.3     1  UNL1        0.0843
      6 C          64.0731   89.7405   15.4547 C.3     1  UNL1        0.0164
      7 C          63.4506   88.6685   16.2993 C.3     1  UNL1        0.0209
      8 C          62.9632   87.4007   15.6629 C.3     1  UNL1        0.0758
      9 C          62.3407   86.3287   16.5074 C.3     1  UNL1        0.0215
     10 C          64.4704   83.2363    9.5145 C.3     1  UNL1        0.0310
     11 C          63.6757   84.3908   10.0489 C.ar    1  UNL1       -0.0216
     12 C          63.0162   85.3494    9.1024 C.ar    1  UNL1       -0.0026
     13 C          62.2215   86.5039    9.6368 C.ar    1  UNL1        0.0207
     14 C          62.0864   86.6998   11.1178 C.ar    1  UNL1        0.1072
     15 C          62.7460   85.7412   12.0643 C.ar    1  UNL1        0.0726
     16 C          63.5406   84.5867   11.5299 C.ar    1  UNL1        0.0018
     17 N          61.2917   87.8543   11.6522 N.ar    1  UNL1       -0.1477
     18 N          59.8891   87.7900   12.1800 N.ar    1  UNL1       -0.1447
     19 C          59.4906   89.1718   12.6067 C.ar    1  UNL1        0.1446
     20 C          60.6470   90.0900   12.3426 C.ar    1  UNL1        0.1446
     21 N          61.7601   89.2757   11.7527 N.ar    1  UNL1       -0.1447
     22 C          64.8307   90.6167   13.1291 C.1     1  UNL1       -0.0857
     23 C          65.4533   91.6887   12.2846 C.1     1  UNL1       -0.0644
     24 C          66.0758   92.7607   11.4400 C.ar    1  UNL1        0.0414
     25 C          65.8226   94.2052   11.7549 C.ar    1  UNL1        0.0082
     26 C          66.4451   95.2772   10.9104 C.ar    1  UNL1        0.0004
     27 C          67.3208   94.9046    9.7509 C.ar    1  UNL1       -0.0018
     28 C          67.5740   93.4601    9.4360 C.ar    1  UNL1        0.0076
     29 C          66.9514   92.3881   10.2806 C.ar    1  UNL1        0.0064
     30 C          68.4496   93.0876    8.2765 C.3     1  UNL1        0.1636
     31 O          69.1156   91.7440    8.2409 O.3     1  UNL1       -0.3772
     32 H          69.7643   91.6855    8.9596 H       1  UNL1        0.2109
@<TRIPOS>BOND
     1    10    11    1
     2    11    12   ar
     3    12    13   ar
     4    13    14   ar
     5    14    17    1
     6    17    18   ar
     7    18    19   ar
     8    19    20   ar
     9    20    21   ar
    10    14    15   ar
    11    15     1    1
    12     1     2    2
    13     1     3   am
    14     3     4    1
    15     4     5    1
    16     5    22    1
    17    22    23    3
    18    23    24    1
    19    24    25   ar
    20    25    26   ar
    21    26    27   ar
    22    27    28   ar
    23    28    30    1
    24    30    31    1
    25    28    29   ar
    26     5     6    1
    27     6     7    1
    28     7     8    1
    29     8     9    1
    30    15    16   ar
    31    16    11   ar
    32    21    17   ar
    33     8     3    1
    34    29    24   ar
    35    31    32    1
