@<TRIPOS>MOLECULE
*****
 26 29 0 0 0
SMALL
GASTEIGER

@<TRIPOS>ATOM
      1 C          62.7280   83.9498   11.2717 C.3     1  UNL1        0.0061
      2 C          63.2851   83.6957   12.6411 C.3     1  UNL1        0.0373
      3 C          63.7756   82.9514   13.8474 C.3     1  UNL1        0.0075
      4 C          64.2644   83.7070   15.0474 C.3     1  UNL1        0.0219
      5 C          64.2628   85.2070   15.0411 C.3     1  UNL1        0.0950
      6 N          63.7723   85.9513   13.8347 N.am    1  UNL1       -0.2639
      7 C          63.7706   87.4513   13.8284 C.2     1  UNL1        0.3039
      8 O          63.2801   88.1956   12.6219 O.2     1  UNL1       -0.2526
      9 N          64.2595   88.2070   15.0284 N.am    1  UNL1       -0.2901
     10 C          63.2834   85.1957   12.6347 C.3     1  UNL1        0.0989
     11 H          64.5814   87.7184   15.8202 H       1  UNL1        0.1509
     12 C          63.0932   82.2839   12.1718 C.ar    1  UNL1       -0.0212
     13 C          62.6035   81.2361   13.1269 C.ar    1  UNL1       -0.0042
     14 C          62.4117   79.8244   12.6577 C.ar    1  UNL1       -0.0003
     15 C          62.7096   79.4605   11.2333 C.ar    1  UNL1       -0.0000
     16 C          63.1993   80.5083   10.2782 C.ar    1  UNL1       -0.0003
     17 C          63.3911   81.9200   10.7474 C.ar    1  UNL1       -0.0042
     18 C          64.2578   89.7069   15.0219 C.3     1  UNL1        0.0774
     19 C          64.0307   91.0088   15.7315 C.3     1  UNL1        0.0259
     20 C          64.4821   91.0031   14.3010 C.3     1  UNL1        0.0420
     21 C          64.8722   91.7481   13.0589 C.ar    1  UNL1       -0.0208
     22 C          65.9396   92.8002   13.1195 C.ar    1  UNL1       -0.0042
     23 C          66.3297   93.5452   11.8774 C.ar    1  UNL1       -0.0003
     24 C          65.6524   93.2381   10.5747 C.ar    1  UNL1       -0.0000
     25 C          64.5850   92.1860   10.5142 C.ar    1  UNL1       -0.0003
     26 C          64.1949   91.4410   11.7562 C.ar    1  UNL1       -0.0042
@<TRIPOS>BOND
     1     1     2    1
     2     2    12    1
     3    12    13   ar
     4    13    14   ar
     5    14    15   ar
     6    15    16   ar
     7    16    17   ar
     8     2     3    1
     9     3     4    1
    10     4     5    1
    11     5     6    1
    12     6     7   am
    13     7     8    2
    14     7     9   am
    15    18     9    1
    16    18    19    1
    17    19    20    1
    18    20    21    1
    19    21    22   ar
    20    22    23   ar
    21    23    24   ar
    22    24    25   ar
    23    25    26   ar
    24     6    10    1
    25    10     2    1
    26    17    12   ar
    27    20    18    1
    28    26    21   ar
    29     9    11    1
@<TRIPOS>MOLECULE
*****
 26 29 0 0 0
SMALL
GASTEIGER

@<TRIPOS>ATOM
      1 C          65.1459   92.3622   10.7310 C.3     1  UNL1        0.0061
      2 C          65.7146   92.8505   12.0304 C.3     1  UNL1        0.0373
      3 C          66.4716   93.7013   13.0065 C.3     1  UNL1        0.0075
      4 C          66.4887   93.3385   14.4619 C.3     1  UNL1        0.0219
      5 C          65.7489   92.1248   14.9411 C.3     1  UNL1        0.0950
      6 N          64.9919   91.2740   13.9649 N.am    1  UNL1       -0.2639
      7 C          64.2520   90.0603   14.4441 C.2     1  UNL1        0.3039
      8 O          63.4950   89.2095   13.4678 O.2     1  UNL1       -0.2526
      9 N          64.2691   89.6975   15.8994 N.am    1  UNL1       -0.2901
     10 C          64.9747   91.6368   12.5096 C.3     1  UNL1        0.0989
     11 H          64.7660   90.2559   16.5402 H       1  UNL1        0.1509
     12 C          66.2570   93.8946   11.0999 C.ar    1  UNL1       -0.0212
     13 C          67.0539   93.4858    9.8967 C.ar    1  UNL1       -0.0042
     14 C          67.5962   94.5300    8.9663 C.ar    1  UNL1       -0.0003
     15 C          67.3416   95.9828    9.2391 C.ar    1  UNL1       -0.0000
     16 C          66.5447   96.3915   10.4424 C.ar    1  UNL1       -0.0003
     17 C          66.0024   95.3474   11.3728 C.ar    1  UNL1       -0.0042
     18 C          63.5293   88.4838   16.3785 C.3     1  UNL1        0.0774
     19 C          62.5391   87.8495   17.3097 C.3     1  UNL1        0.0259
     20 C          63.2381   87.0158   16.2770 C.3     1  UNL1        0.0420
     21 C          63.4735   85.6870   15.6221 C.ar    1  UNL1       -0.0208
     22 C          62.4989   84.5658   15.8291 C.ar    1  UNL1       -0.0042
     23 C          62.7343   83.2369   15.1742 C.ar    1  UNL1       -0.0003
     24 C          63.9444   83.0294   14.3124 C.ar    1  UNL1       -0.0000
     25 C          64.9190   84.1507   14.1055 C.ar    1  UNL1       -0.0003
     26 C          64.6836   85.4795   14.7603 C.ar    1  UNL1       -0.0042
@<TRIPOS>BOND
     1     1     2    1
     2     2    12    1
     3    12    13   ar
     4    13    14   ar
     5    14    15   ar
     6    15    16   ar
     7    16    17   ar
     8     2     3    1
     9     3     4    1
    10     4     5    1
    11     5     6    1
    12     6     7   am
    13     7     8    2
    14     7     9   am
    15    18     9    1
    16    18    19    1
    17    19    20    1
    18    20    21    1
    19    21    22   ar
    20    22    23   ar
    21    23    24   ar
    22    24    25   ar
    23    25    26   ar
    24     6    10    1
    25    10     2    1
    26    17    12   ar
    27    20    18    1
    28    26    21   ar
    29     9    11    1
@<TRIPOS>MOLECULE
*****
 26 29 0 0 0
SMALL
GASTEIGER

@<TRIPOS>ATOM
      1 C          62.6731   83.7285   11.1687 C.3     1  UNL1        0.0061
      2 C          63.2756   83.5151   12.5258 C.3     1  UNL1        0.0373
      3 C          63.8064   82.8068   13.7368 C.3     1  UNL1        0.0075
      4 C          64.3343   83.5975   14.8969 C.3     1  UNL1        0.0219
      5 C          64.3314   85.0967   14.8460 C.3     1  UNL1        0.0950
      6 N          63.8007   85.8050   13.6351 N.am    1  UNL1       -0.2639
      7 C          63.7978   87.3042   13.5842 C.2     1  UNL1        0.3039
      8 O          63.2670   88.0124   12.3731 O.2     1  UNL1       -0.2526
      9 N          64.3257   88.0950   14.7443 N.am    1  UNL1       -0.2901
     10 C          63.2727   85.0142   12.4749 C.3     1  UNL1        0.0989
     11 H          64.6741   87.6301   15.5392 H       1  UNL1        0.1509
     12 C          63.0692   82.0900   12.1053 C.ar    1  UNL1       -0.0212
     13 C          62.6513   81.0630   13.1155 C.ar    1  UNL1       -0.0042
     14 C          62.4449   79.6381   12.6950 C.ar    1  UNL1       -0.0003
     15 C          62.6565   79.2401   11.2644 C.ar    1  UNL1       -0.0000
     16 C          63.0745   80.2671   10.2542 C.ar    1  UNL1       -0.0003
     17 C          63.2809   81.6920   10.6747 C.ar    1  UNL1       -0.0042
     18 C          64.3228   89.5941   14.6934 C.3     1  UNL1        0.0774
     19 C          63.5777   90.8874   14.5447 C.3     1  UNL1        0.0259
     20 C          65.0631   90.8974   14.7539 C.3     1  UNL1        0.0420
     21 C          66.3480   91.6555   14.9096 C.ar    1  UNL1       -0.0208
     22 C          66.5679   92.5187   16.1164 C.ar    1  UNL1       -0.0042
     23 C          67.8528   93.2769   16.2721 C.ar    1  UNL1       -0.0003
     24 C          68.9178   93.1717   15.2210 C.ar    1  UNL1       -0.0000
     25 C          68.6979   92.3084   14.0142 C.ar    1  UNL1       -0.0003
     26 C          67.4129   91.5503   13.8585 C.ar    1  UNL1       -0.0042
@<TRIPOS>BOND
     1     1     2    1
     2     2    12    1
     3    12    13   ar
     4    13    14   ar
     5    14    15   ar
     6    15    16   ar
     7    16    17   ar
     8     2     3    1
     9     3     4    1
    10     4     5    1
    11     5     6    1
    12     6     7   am
    13     7     8    2
    14     7     9   am
    15    18     9    1
    16    18    19    1
    17    19    20    1
    18    20    21    1
    19    21    22   ar
    20    22    23   ar
    21    23    24   ar
    22    24    25   ar
    23    25    26   ar
    24     6    10    1
    25    10     2    1
    26    17    12   ar
    27    20    18    1
    28    26    21   ar
    29     9    11    1
@<TRIPOS>MOLECULE
*****
 26 29 0 0 0
SMALL
GASTEIGER

@<TRIPOS>ATOM
      1 C          66.4195   92.1721   12.6877 C.3     1  UNL1        0.0061
      2 C          65.6287   91.6416   13.8468 C.3     1  UNL1        0.0373
      3 C          65.2220   91.3531   15.2614 C.3     1  UNL1        0.0075
      4 C          63.9842   90.5521   15.5374 C.3     1  UNL1        0.0219
      5 C          63.1531   90.0396   14.3987 C.3     1  UNL1        0.0950
      6 N          63.5598   90.3281   12.9840 N.am    1  UNL1       -0.2639
      7 C          62.7287   89.8156   11.8453 C.2     1  UNL1        0.3039
      8 O          63.1355   90.1041   10.4307 O.2     1  UNL1       -0.2526
      9 N          61.4909   89.0146   12.1213 N.am    1  UNL1       -0.2901
     10 C          64.7976   91.1291   12.7080 C.3     1  UNL1        0.0989
     11 H          61.2239   88.8252   13.0498 H       1  UNL1        0.1509
     12 C          66.7345   92.3384   14.5829 C.ar    1  UNL1       -0.0212
     13 C          67.6978   91.5450   15.4152 C.ar    1  UNL1       -0.0042
     14 C          68.8035   92.2418   16.1513 C.ar    1  UNL1       -0.0003
     15 C          68.9459   93.7319   16.0552 C.ar    1  UNL1       -0.0000
     16 C          67.9826   94.5253   15.2229 C.ar    1  UNL1       -0.0003
     17 C          66.8769   93.8285   14.4868 C.ar    1  UNL1       -0.0042
     18 C          60.6599   88.5021   10.9826 C.3     1  UNL1        0.0774
     19 C          59.3690   88.4903   10.2188 C.3     1  UNL1        0.0259
     20 C          60.5115   87.6261    9.7740 C.3     1  UNL1        0.0420
     21 C          61.0855   86.6215    8.8194 C.ar    1  UNL1       -0.0208
     22 C          62.5006   86.1525    8.9854 C.ar    1  UNL1       -0.0042
     23 C          63.0746   85.1478    8.0308 C.ar    1  UNL1       -0.0003
     24 C          62.2334   84.6122    6.9103 C.ar    1  UNL1       -0.0000
     25 C          60.8184   85.0811    6.7443 C.ar    1  UNL1       -0.0003
     26 C          60.2444   86.0858    7.6989 C.ar    1  UNL1       -0.0042
@<TRIPOS>BOND
     1     1     2    1
     2     2    12    1
     3    12    13   ar
     4    13    14   ar
     5    14    15   ar
     6    15    16   ar
     7    16    17   ar
     8     2     3    1
     9     3     4    1
    10     4     5    1
    11     5     6    1
    12     6     7   am
    13     7     8    2
    14     7     9   am
    15    18     9    1
    16    18    19    1
    17    19    20    1
    18    20    21    1
    19    21    22   ar
    20    22    23   ar
    21    23    24   ar
    22    24    25   ar
    23    25    26   ar
    24     6    10    1
    25    10     2    1
    26    17    12   ar
    27    20    18    1
    28    26    21   ar
    29     9    11    1
@<TRIPOS>MOLECULE
*****
 26 29 0 0 0
SMALL
GASTEIGER

@<TRIPOS>ATOM
      1 C          63.7221   84.0950   14.3923 C.3     1  UNL1        0.0061
      2 C          63.0500   84.4927   13.1116 C.3     1  UNL1        0.0373
      3 C          62.2717   84.3803   11.8343 C.3     1  UNL1        0.0075
      4 C          62.0325   85.5983   10.9921 C.3     1  UNL1        0.0219
      5 C          62.5716   86.9287   11.4273 C.3     1  UNL1        0.0950
      6 N          63.3499   87.0411   12.7046 N.am    1  UNL1       -0.2639
      7 C          63.8891   88.3715   13.1398 C.2     1  UNL1        0.3039
      8 O          64.6674   88.4838   14.4172 O.2     1  UNL1       -0.2526
      9 N          63.6499   89.5895   12.2977 N.am    1  UNL1       -0.2901
     10 C          63.5891   85.8231   13.5468 C.3     1  UNL1        0.0989
     11 H          63.1391   89.5158   11.4593 H       1  UNL1        0.1509
     12 C          62.7442   83.0241   13.1212 C.ar    1  UNL1       -0.0212
     13 C          62.0153   82.4174   14.2833 C.ar    1  UNL1       -0.0042
     14 C          61.7096   80.9490   14.2928 C.ar    1  UNL1       -0.0003
     15 C          62.1329   80.0872   13.1403 C.ar    1  UNL1       -0.0000
     16 C          62.8618   80.6940   11.9783 C.ar    1  UNL1       -0.0003
     17 C          63.1675   82.1624   11.9687 C.ar    1  UNL1       -0.0042
     18 C          64.1891   90.9198   12.7329 C.3     1  UNL1        0.0774
     19 C          64.3134   91.9942   13.7723 C.3     1  UNL1        0.0259
     20 C          64.9988   92.1498   12.4472 C.3     1  UNL1        0.0420
     21 C          65.8620   92.9498   11.5172 C.ar    1  UNL1       -0.0208
     22 C          65.8016   94.4483   11.5404 C.ar    1  UNL1       -0.0042
     23 C          66.6648   95.2483   10.6104 C.ar    1  UNL1       -0.0003
     24 C          67.5885   94.5496    9.6571 C.ar    1  UNL1       -0.0000
     25 C          67.6489   93.0510    9.6338 C.ar    1  UNL1       -0.0003
     26 C          66.7857   92.2511   10.5638 C.ar    1  UNL1       -0.0042
@<TRIPOS>BOND
     1     1     2    1
     2     2    12    1
     3    12    13   ar
     4    13    14   ar
     5    14    15   ar
     6    15    16   ar
     7    16    17   ar
     8     2     3    1
     9     3     4    1
    10     4     5    1
    11     5     6    1
    12     6     7   am
    13     7     8    2
    14     7     9   am
    15    18     9    1
    16    18    19    1
    17    19    20    1
    18    20    21    1
    19    21    22   ar
    20    22    23   ar
    21    23    24   ar
    22    24    25   ar
    23    25    26   ar
    24     6    10    1
    25    10     2    1
    26    17    12   ar
    27    20    18    1
    28    26    21   ar
    29     9    11    1
@<TRIPOS>MOLECULE
*****
 26 29 0 0 0
SMALL
GASTEIGER

@<TRIPOS>ATOM
      1 C          62.4859   84.6281   12.0985 C.3     1  UNL1        0.0061
      2 C          63.2404   84.5853   13.3943 C.3     1  UNL1        0.0373
      3 C          63.8659   84.0399   14.6437 C.3     1  UNL1        0.0075
      4 C          64.6008   84.9565   15.5763 C.3     1  UNL1        0.0219
      5 C          64.7103   86.4186   15.2594 C.3     1  UNL1        0.0950
      6 N          64.0848   86.9640   14.0099 N.am    1  UNL1       -0.2639
      7 C          64.1943   88.4261   13.6929 C.2     1  UNL1        0.3039
      8 O          63.5688   88.9714   12.4434 O.2     1  UNL1       -0.2526
      9 N          64.9292   89.3426   14.6255 N.am    1  UNL1       -0.2901
     10 C          63.3499   86.0474   13.0773 C.3     1  UNL1        0.0989
     11 H          65.3397   88.9847   15.4456 H       1  UNL1        0.1509
     12 C          62.8689   83.1381   13.2612 C.ar    1  UNL1       -0.0212
     13 C          62.1187   82.4519   14.3640 C.ar    1  UNL1       -0.0042
     14 C          61.7472   81.0048   14.2309 C.ar    1  UNL1       -0.0003
     15 C          62.1259   80.2438   12.9949 C.ar    1  UNL1       -0.0000
     16 C          62.8761   80.9300   11.8921 C.ar    1  UNL1       -0.0003
     17 C          63.2476   82.3772   12.0252 C.ar    1  UNL1       -0.0042
     18 C          65.0386   90.8046   14.3085 C.3     1  UNL1        0.0774
     19 C          64.7574   92.2351   14.6616 C.3     1  UNL1        0.0259
     20 C          65.5094   91.9065   13.4060 C.3     1  UNL1        0.0420
     21 C          66.2154   92.3529   12.1601 C.ar    1  UNL1       -0.0208
     22 C          65.5728   93.3609   11.2542 C.ar    1  UNL1       -0.0042
     23 C          66.2788   93.8073   10.0083 C.ar    1  UNL1       -0.0003
     24 C          67.6275   93.2456    9.6683 C.ar    1  UNL1       -0.0000
     25 C          68.2701   92.2375   10.5743 C.ar    1  UNL1       -0.0003
     26 C          67.5641   91.7911   11.8202 C.ar    1  UNL1       -0.0042
@<TRIPOS>BOND
     1     1     2    1
     2     2    12    1
     3    12    13   ar
     4    13    14   ar
     5    14    15   ar
     6    15    16   ar
     7    16    17   ar
     8     2     3    1
     9     3     4    1
    10     4     5    1
    11     5     6    1
    12     6     7   am
    13     7     8    2
    14     7     9   am
    15    18     9    1
    16    18    19    1
    17    19    20    1
    18    20    21    1
    19    21    22   ar
    20    22    23   ar
    21    23    24   ar
    22    24    25   ar
    23    25    26   ar
    24     6    10    1
    25    10     2    1
    26    17    12   ar
    27    20    18    1
    28    26    21   ar
    29     9    11    1
@<TRIPOS>MOLECULE
*****
 26 29 0 0 0
SMALL
GASTEIGER

@<TRIPOS>ATOM
      1 C          63.5732   84.1341   14.2578 C.3     1  UNL1        0.0061
      2 C          62.9259   84.4143   12.9339 C.3     1  UNL1        0.0373
      3 C          62.1916   84.1822   11.6468 C.3     1  UNL1        0.0075
      4 C          61.9328   85.3279   10.7138 C.3     1  UNL1        0.0219
      5 C          62.4084   86.7057   11.0681 C.3     1  UNL1        0.0950
      6 N          63.1427   86.9378   12.3552 N.am    1  UNL1       -0.2639
      7 C          63.6182   88.3157   12.7095 C.2     1  UNL1        0.3039
      8 O          64.3526   88.5477   13.9967 O.2     1  UNL1       -0.2526
      9 N          63.3594   89.4614   11.7765 N.am    1  UNL1       -0.2901
     10 C          63.4015   85.7921   13.2882 C.3     1  UNL1        0.0989
     11 H          62.8775   89.3090   10.9317 H       1  UNL1        0.1509
     12 C          62.6751   82.9391   13.0395 C.ar    1  UNL1       -0.0212
     13 C          61.9564   82.3841   14.2333 C.ar    1  UNL1       -0.0042
     14 C          61.7056   80.9090   14.3388 C.ar    1  UNL1       -0.0003
     15 C          62.1737   79.9889   13.2505 C.ar    1  UNL1       -0.0000
     16 C          62.8925   80.5440   12.0566 C.ar    1  UNL1       -0.0003
     17 C          63.1432   82.0191   11.9511 C.ar    1  UNL1       -0.0042
     18 C          63.8350   90.8391   12.1308 C.3     1  UNL1        0.0774
     19 C          63.7554   92.3265   11.9537 C.3     1  UNL1        0.0259
     20 C          64.7385   91.7381   12.9219 C.3     1  UNL1        0.0420
     21 C          65.8277   91.9173   13.9375 C.ar    1  UNL1       -0.0208
     22 C          65.4792   92.1941   15.3700 C.ar    1  UNL1       -0.0042
     23 C          66.5684   92.3734   16.3856 C.ar    1  UNL1       -0.0003
     24 C          68.0061   92.2758   15.9688 C.ar    1  UNL1       -0.0000
     25 C          68.3545   91.9990   14.5364 C.ar    1  UNL1       -0.0003
     26 C          67.2653   91.8198   13.5207 C.ar    1  UNL1       -0.0042
@<TRIPOS>BOND
     1     1     2    1
     2     2    12    1
     3    12    13   ar
     4    13    14   ar
     5    14    15   ar
     6    15    16   ar
     7    16    17   ar
     8     2     3    1
     9     3     4    1
    10     4     5    1
    11     5     6    1
    12     6     7   am
    13     7     8    2
    14     7     9   am
    15    18     9    1
    16    18    19    1
    17    19    20    1
    18    20    21    1
    19    21    22   ar
    20    22    23   ar
    21    23    24   ar
    22    24    25   ar
    23    25    26   ar
    24     6    10    1
    25    10     2    1
    26    17    12   ar
    27    20    18    1
    28    26    21   ar
    29     9    11    1
@<TRIPOS>MOLECULE
*****
 26 29 0 0 0
SMALL
GASTEIGER

@<TRIPOS>ATOM
      1 C          62.7940   85.6063    9.9146 C.3     1  UNL1        0.0061
      2 C          62.0524   86.8730    9.6054 C.3     1  UNL1        0.0373
      3 C          61.1676   87.8491    8.8883 C.3     1  UNL1        0.0075
      4 C          60.9530   89.2220    9.4530 C.3     1  UNL1        0.0219
      5 C          61.6234   89.6189   10.7349 C.3     1  UNL1        0.0950
      6 N          62.5082   88.6429   11.4520 N.am    1  UNL1       -0.2639
      7 C          63.1786   89.0397   12.7338 C.2     1  UNL1        0.3039
      8 O          64.0635   88.0636   13.4509 O.2     1  UNL1       -0.2526
      9 N          62.9641   90.4127   13.2986 N.am    1  UNL1       -0.2901
     10 C          62.7228   87.2699   10.8872 C.3     1  UNL1        0.0989
     11 H          62.3833   91.0534   12.8279 H       1  UNL1        0.1509
     12 C          61.6396   86.0362    8.4309 C.ar    1  UNL1       -0.0212
     13 C          62.6524   85.1861    7.7227 C.ar    1  UNL1       -0.0042
     14 C          62.2396   84.3493    6.5483 C.ar    1  UNL1       -0.0003
     15 C          60.8139   84.3626    6.0821 C.ar    1  UNL1       -0.0000
     16 C          59.8011   85.2126    6.7903 C.ar    1  UNL1       -0.0003
     17 C          60.2140   86.0494    7.9647 C.ar    1  UNL1       -0.0042
     18 C          63.6344   90.8095   14.5804 C.3     1  UNL1        0.0774
     19 C          63.6011   90.9550   16.0729 C.3     1  UNL1        0.0259
     20 C          64.8291   91.3513   15.3080 C.3     1  UNL1        0.0420
     21 C          66.2277   91.8930   15.2864 C.ar    1  UNL1       -0.0208
     22 C          66.7030   92.7868   16.3931 C.ar    1  UNL1       -0.0042
     23 C          68.1016   93.3284   16.3715 C.ar    1  UNL1       -0.0003
     24 C          69.0250   92.9762   15.2431 C.ar    1  UNL1       -0.0000
     25 C          68.5497   92.0823   14.1363 C.ar    1  UNL1       -0.0003
     26 C          67.1510   91.5407   14.1579 C.ar    1  UNL1       -0.0042
@<TRIPOS>BOND
     1     1     2    1
     2     2    12    1
     3    12    13   ar
     4    13    14   ar
     5    14    15   ar
     6    15    16   ar
     7    16    17   ar
     8     2     3    1
     9     3     4    1
    10     4     5    1
    11     5     6    1
    12     6     7   am
    13     7     8    2
    14     7     9   am
    15    18     9    1
    16    18    19    1
    17    19    20    1
    18    20    21    1
    19    21    22   ar
    20    22    23   ar
    21    23    24   ar
    22    24    25   ar
    23    25    26   ar
    24     6    10    1
    25    10     2    1
    26    17    12   ar
    27    20    18    1
    28    26    21   ar
    29     9    11    1
@<TRIPOS>MOLECULE
*****
 26 29 0 0 0
SMALL
GASTEIGER

@<TRIPOS>ATOM
      1 C          65.8851   90.8149   14.9277 C.3     1  UNL1        0.0061
      2 C          65.8458   91.7100   13.7246 C.3     1  UNL1        0.0373
      3 C          66.1776   92.8430   12.7994 C.3     1  UNL1        0.0075
      4 C          65.4547   92.9802   11.4922 C.3     1  UNL1        0.0219
      5 C          64.4000   91.9842   11.1104 C.3     1  UNL1        0.0950
      6 N          64.0683   90.8512   12.0356 N.am    1  UNL1       -0.2639
      7 C          63.0136   89.8552   11.6538 C.2     1  UNL1        0.3039
      8 O          62.6819   88.7222   12.5791 O.2     1  UNL1       -0.2526
      9 N          62.2907   89.9923   10.3467 N.am    1  UNL1       -0.2901
     10 C          64.7912   90.7141   13.3428 C.3     1  UNL1        0.0989
     11 H          62.5084   90.7359    9.7393 H       1  UNL1        0.1509
     12 C          66.9141   92.3951   14.5243 C.ar    1  UNL1       -0.0212
     13 C          67.0060   93.8923   14.5259 C.ar    1  UNL1       -0.0042
     14 C          68.0742   94.5773   15.3255 C.ar    1  UNL1       -0.0003
     15 C          69.0507   93.7651   16.1236 C.ar    1  UNL1       -0.0000
     16 C          68.9589   92.2680   16.1220 C.ar    1  UNL1       -0.0003
     17 C          67.8906   91.5830   15.3224 C.ar    1  UNL1       -0.0042
     18 C          61.2361   88.9963    9.9649 C.3     1  UNL1        0.0774
     19 C          59.8141   88.5226   10.0247 C.3     1  UNL1        0.0259
     20 C          60.8315   87.7448    9.2437 C.3     1  UNL1        0.0420
     21 C          61.1853   86.5731    8.3765 C.ar    1  UNL1       -0.0208
     22 C          60.1828   86.0326    7.4006 C.ar    1  UNL1       -0.0042
     23 C          60.5366   84.8610    6.5333 C.ar    1  UNL1       -0.0003
     24 C          61.8931   84.2299    6.6421 C.ar    1  UNL1       -0.0000
     25 C          62.8957   84.7705    7.6180 C.ar    1  UNL1       -0.0003
     26 C          62.5418   85.9421    8.4853 C.ar    1  UNL1       -0.0042
@<TRIPOS>BOND
     1     1     2    1
     2     2    12    1
     3    12    13   ar
     4    13    14   ar
     5    14    15   ar
     6    15    16   ar
     7    16    17   ar
     8     2     3    1
     9     3     4    1
    10     4     5    1
    11     5     6    1
    12     6     7   am
    13     7     8    2
    14     7     9   am
    15    18     9    1
    16    18    19    1
    17    19    20    1
    18    20    21    1
    19    21    22   ar
    20    22    23   ar
    21    23    24   ar
    22    24    25   ar
    23    25    26   ar
    24     6    10    1
    25    10     2    1
    26    17    12   ar
    27    20    18    1
    28    26    21   ar
    29     9    11    1
