@<TRIPOS>MOLECULE
*****
 36 39 0 0 0
SMALL
GASTEIGER

@<TRIPOS>ATOM
      1 C          65.2209   93.6873   10.0567 C.3     1  UNL1        0.1383
      2 N          65.2124   92.9310   11.3522 N.ar    1  UNL1       -0.2455
      3 C          64.5591   91.5830   11.4293 C.ar    1  UNL1        0.2816
      4 O          63.9142   90.9913   10.2111 O.2     1  UNL1       -0.2652
      5 C          64.5507   90.8267   12.7246 C.ar    1  UNL1        0.1342
      6 C          65.1955   91.4184   13.9428 C.ar    1  UNL1        0.0871
      7 C          65.0314   90.4458   15.0729 C.ar    1  UNL1        0.0515
      8 C          64.2852   89.2530   14.5531 C.ar    1  UNL1        0.1142
      9 N          63.9880   89.4883   13.1018 N.ar    1  UNL1       -0.3068
     10 N          65.8488   92.7664   13.8657 N.ar    1  UNL1       -0.2795
     11 C          65.8573   93.5227   12.5703 C.ar    1  UNL1        0.3339
     12 O          66.5106   94.8708   12.4931 O.2     1  UNL1       -0.2462
     13 N          63.9031   88.0380   15.3455 N.pl3   1  UNL1       -0.2932
     14 C          63.1198   88.1870   16.6161 C.3     1  UNL1        0.0922
     15 C          62.7378   86.9720   17.4084 C.3     1  UNL1        0.0228
     16 C          63.1389   85.6080   16.9303 C.3     1  UNL1        0.0177
     17 C          63.9222   85.4590   15.6597 C.3     1  UNL1        0.0575
     18 C          64.6620   84.8098   14.5278 C.3     1  UNL1        0.0173
     19 N          63.7970   84.0185   16.0590 N.3     1  UNL1       -0.3219
     20 C          64.3042   86.6740   14.8674 C.3     1  UNL1        0.1062
     21 H          63.2729   83.9519   16.9315 H       1  UNL1        0.1188
     22 H          64.7268   83.6199   16.1895 H       1  UNL1        0.1188
     23 C          63.2566   88.5501   12.1881 C.3     1  UNL1        0.1350
     24 C          62.0635   89.0319   11.4172 C.ar    1  UNL1        0.0132
     25 C          61.1549   90.0672   12.0111 C.ar    1  UNL1        0.0281
     26 C          59.9618   90.5490   11.2403 C.ar    1  UNL1        0.1399
     27 F          59.0532   91.5843   11.8341 F       1  UNL1       -0.2042
     28 C          59.6772   89.9955    9.8754 C.ar    1  UNL1        0.0305
     29 C          60.5857   88.9602    9.2816 C.ar    1  UNL1        0.0134
     30 C          61.7789   88.4784   10.0524 C.ar    1  UNL1        0.0557
     31 CL         62.6874   87.4431    9.4586 Cl      1  UNL1       -0.0825
     32 C          66.4937   93.3582   15.0839 C.3     1  UNL1        0.1131
     33 C          67.6886   92.6916   15.6987 C.3     1  UNL1        0.0563
     34 C          69.0062   92.7046   14.9819 C.3     1  UNL1        0.1392
     35 O          69.1714   91.9398   13.7022 O.3     1  UNL1       -0.3819
     36 H          69.0932   90.9896   13.8809 H       1  UNL1        0.2104
@<TRIPOS>BOND
     1     1     2    1
     2     2     3   ar
     3     3     4    2
     4     3     5   ar
     5     5     6   ar
     6     6     7   ar
     7     7     8   ar
     8     8    13    1
     9    13    14    1
    10    14    15    1
    11    15    16    1
    12    16    17    1
    13    17    18    1
    14    17    19    1
    15    17    20    1
    16     8     9   ar
    17     9    23    1
    18    23    24    1
    19    24    25   ar
    20    25    26   ar
    21    26    27    1
    22    26    28   ar
    23    28    29   ar
    24    29    30   ar
    25    30    31    1
    26     6    10   ar
    27    10    32    1
    28    32    33    1
    29    33    34    1
    30    34    35    1
    31    10    11   ar
    32    11    12    2
    33    11     2   ar
    34     9     5   ar
    35    30    24   ar
    36    20    13    1
    37    19    21    1
    38    19    22    1
    39    35    36    1
@<TRIPOS>MOLECULE
*****
 36 39 0 0 0
SMALL
GASTEIGER

@<TRIPOS>ATOM
      1 C          64.8375   93.8872    9.8050 C.3     1  UNL1        0.1383
      2 N          65.0863   93.0122   10.9978 N.ar    1  UNL1       -0.2455
      3 C          64.1283   91.9068   11.3298 C.ar    1  UNL1        0.2816
      4 O          62.9215   91.6764   10.4692 O.2     1  UNL1       -0.2652
      5 C          64.3770   91.0318   12.5225 C.ar    1  UNL1        0.1342
      6 C          65.5837   91.2622   13.3831 C.ar    1  UNL1        0.0871
      7 C          65.5672   90.2460   14.4863 C.ar    1  UNL1        0.0515
      8 C          64.3502   89.3875   14.3075 C.ar    1  UNL1        0.1142
      9 N          63.6146   89.8732   13.0938 N.ar    1  UNL1       -0.3068
     10 N          66.5418   92.3675   13.0511 N.ar    1  UNL1       -0.2795
     11 C          66.2930   93.2426   11.8583 C.ar    1  UNL1        0.3339
     12 O          67.2511   94.3480   11.5263 O.2     1  UNL1       -0.2462
     13 N          63.9406   88.2441   15.1878 N.pl3   1  UNL1       -0.2932
     14 C          63.1285   88.5016   16.4223 C.3     1  UNL1        0.0922
     15 C          62.7190   87.3581   17.3026 C.3     1  UNL1        0.0228
     16 C          63.1216   85.9572   16.9483 C.3     1  UNL1        0.0177
     17 C          63.9338   85.6998   15.7138 C.3     1  UNL1        0.0575
     18 C          64.6956   84.9555   14.6576 C.3     1  UNL1        0.0173
     19 N          63.7888   84.2979   16.2273 N.3     1  UNL1       -0.3219
     20 C          64.3433   86.8433   14.8335 C.3     1  UNL1        0.1062
     21 H          63.2436   84.3062   17.0893 H       1  UNL1        0.1188
     22 H          64.7123   83.9066   16.4128 H       1  UNL1        0.1188
     23 C          62.3404   89.3007   12.5473 C.3     1  UNL1        0.1350
     24 C          62.3835   88.1130   11.6322 C.ar    1  UNL1        0.0132
     25 C          62.8188   86.7770   12.1573 C.ar    1  UNL1        0.0281
     26 C          62.8620   85.5893   11.2422 C.ar    1  UNL1        0.1399
     27 F          63.2973   84.2534   11.7673 F       1  UNL1       -0.2042
     28 C          62.4699   85.7376    9.8019 C.ar    1  UNL1        0.0305
     29 C          62.0346   87.0735    9.2768 C.ar    1  UNL1        0.0134
     30 C          61.9914   88.2612   10.1919 C.ar    1  UNL1        0.0557
     31 CL         61.5561   89.5971    9.6669 Cl      1  UNL1       -0.0825
     32 C          67.7486   92.5980   13.9117 C.3     1  UNL1        0.1131
     33 C          67.6265   93.3947   15.1767 C.3     1  UNL1        0.0563
     34 C          67.1044   92.7459   16.4243 C.3     1  UNL1        0.1392
     35 O          65.6633   92.9084   16.8075 O.3     1  UNL1       -0.3819
     36 H          65.4888   93.8380   17.0228 H       1  UNL1        0.2104
@<TRIPOS>BOND
     1     1     2    1
     2     2     3   ar
     3     3     4    2
     4     3     5   ar
     5     5     6   ar
     6     6     7   ar
     7     7     8   ar
     8     8    13    1
     9    13    14    1
    10    14    15    1
    11    15    16    1
    12    16    17    1
    13    17    18    1
    14    17    19    1
    15    17    20    1
    16     8     9   ar
    17     9    23    1
    18    23    24    1
    19    24    25   ar
    20    25    26   ar
    21    26    27    1
    22    26    28   ar
    23    28    29   ar
    24    29    30   ar
    25    30    31    1
    26     6    10   ar
    27    10    32    1
    28    32    33    1
    29    33    34    1
    30    34    35    1
    31    10    11   ar
    32    11    12    2
    33    11     2   ar
    34     9     5   ar
    35    30    24   ar
    36    20    13    1
    37    19    21    1
    38    19    22    1
    39    35    36    1
@<TRIPOS>MOLECULE
*****
 36 39 0 0 0
SMALL
GASTEIGER

@<TRIPOS>ATOM
      1 C          61.3212   85.6395   10.0707 C.3     1  UNL1        0.1383
      2 N          62.1604   86.1276   11.2142 N.ar    1  UNL1       -0.2455
      3 C          62.3186   87.6000   11.4533 C.ar    1  UNL1        0.2816
      4 O          61.6377   88.5841   10.5490 O.2     1  UNL1       -0.2652
      5 C          63.1577   88.0881   12.5968 C.ar    1  UNL1        0.1342
      6 C          63.8387   87.1040   13.5011 C.ar    1  UNL1        0.0871
      7 C          64.5968   87.8763   14.5397 C.ar    1  UNL1        0.0515
      8 C          64.3844   89.3378   14.2773 C.ar    1  UNL1        0.1142
      9 N          63.4950   89.4688   13.0765 N.ar    1  UNL1       -0.3068
     10 N          63.6804   85.6317   13.2620 N.ar    1  UNL1       -0.2795
     11 C          62.8412   85.1435   12.1185 C.ar    1  UNL1        0.3339
     12 O          62.6830   83.6711   11.8793 O.2     1  UNL1       -0.2462
     13 N          64.9602   90.4698   15.0755 N.pl3   1  UNL1       -0.2932
     14 C          64.1192   91.1663   16.1039 C.3     1  UNL1        0.0922
     15 C          64.6952   92.2983   16.9021 C.3     1  UNL1        0.0228
     16 C          66.1120   92.7336   16.6720 C.3     1  UNL1        0.0177
     17 C          66.9530   92.0370   15.6436 C.3     1  UNL1        0.0575
     18 C          68.1368   91.6920   14.7895 C.3     1  UNL1        0.0173
     19 N          67.9400   93.0491   16.1452 N.3     1  UNL1       -0.3219
     20 C          66.3771   90.9051   14.8454 C.3     1  UNL1        0.1062
     21 H          67.5047   93.6176   16.8716 H       1  UNL1        0.1188
     22 H          68.2334   93.6490   15.3742 H       1  UNL1        0.1188
     23 C          63.0254   90.7545   12.4631 C.3     1  UNL1        0.1350
     24 C          64.0227   91.7349   11.9207 C.ar    1  UNL1        0.0132
     25 C          64.9148   92.4936   12.8581 C.ar    1  UNL1        0.0281
     26 C          65.9121   93.4740   12.3157 C.ar    1  UNL1        0.1399
     27 F          66.8042   94.2326   13.2530 F       1  UNL1       -0.2042
     28 C          66.0173   93.6958   10.8358 C.ar    1  UNL1        0.0305
     29 C          65.1252   92.9372    9.8985 C.ar    1  UNL1        0.0134
     30 C          64.1279   91.9567   10.4409 C.ar    1  UNL1        0.0557
     31 CL         63.2358   91.1982    9.5036 Cl      1  UNL1       -0.0825
     32 C          64.3613   84.6474   14.1663 C.3     1  UNL1        0.1131
     33 C          63.6959   84.2131   15.4385 C.3     1  UNL1        0.0563
     34 C          62.3750   83.5040   15.3899 C.3     1  UNL1        0.1392
     35 O          62.3180   82.0480   15.0339 O.3     1  UNL1       -0.3819
     36 H          62.6002   81.9288   14.1136 H       1  UNL1        0.2104
@<TRIPOS>BOND
     1     1     2    1
     2     2     3   ar
     3     3     4    2
     4     3     5   ar
     5     5     6   ar
     6     6     7   ar
     7     7     8   ar
     8     8    13    1
     9    13    14    1
    10    14    15    1
    11    15    16    1
    12    16    17    1
    13    17    18    1
    14    17    19    1
    15    17    20    1
    16     8     9   ar
    17     9    23    1
    18    23    24    1
    19    24    25   ar
    20    25    26   ar
    21    26    27    1
    22    26    28   ar
    23    28    29   ar
    24    29    30   ar
    25    30    31    1
    26     6    10   ar
    27    10    32    1
    28    32    33    1
    29    33    34    1
    30    34    35    1
    31    10    11   ar
    32    11    12    2
    33    11     2   ar
    34     9     5   ar
    35    30    24   ar
    36    20    13    1
    37    19    21    1
    38    19    22    1
    39    35    36    1
@<TRIPOS>MOLECULE
*****
 36 39 0 0 0
SMALL
GASTEIGER

@<TRIPOS>ATOM
      1 C          61.7779   84.9029   10.2673 C.3     1  UNL1        0.1383
      2 N          62.0903   86.2935   10.7352 N.ar    1  UNL1       -0.2455
      3 C          62.9481   86.5017   11.9480 C.ar    1  UNL1        0.2816
      4 O          63.4935   85.3194   12.6928 O.2     1  UNL1       -0.2652
      5 C          63.2605   87.8921   12.4159 C.ar    1  UNL1        0.1342
      6 C          62.7151   89.0744   11.6711 C.ar    1  UNL1        0.0871
      7 C          63.1891   90.3176   12.3637 C.ar    1  UNL1        0.0515
      8 C          64.0274   89.9036   13.5367 C.ar    1  UNL1        0.1142
      9 N          64.0716   88.4046   13.5689 N.ar    1  UNL1       -0.3068
     10 N          61.8573   88.8662   10.4583 N.ar    1  UNL1       -0.2795
     11 C          61.5449   87.4756    9.9904 C.ar    1  UNL1        0.3339
     12 O          60.6870   87.2674    8.7776 O.2     1  UNL1       -0.2462
     13 N          64.7031   90.8266   14.5070 N.pl3   1  UNL1       -0.2932
     14 C          63.9841   91.2678   15.7474 C.3     1  UNL1        0.0922
     15 C          64.6599   92.1908   16.7177 C.3     1  UNL1        0.0228
     16 C          66.0545   92.6727   16.4477 C.3     1  UNL1        0.0177
     17 C          66.7734   92.2315   15.2073 C.3     1  UNL1        0.0575
     18 C          67.8578   92.0944   14.1801 C.3     1  UNL1        0.0173
     19 N          67.8257   93.1069   15.8209 N.3     1  UNL1       -0.3219
     20 C          66.0977   91.3085   14.2370 C.3     1  UNL1        0.1062
     21 H          67.4772   93.4936   16.6981 H       1  UNL1        0.1188
     22 H          68.0513   93.8676   15.1799 H       1  UNL1        0.1188
     23 C          64.7991   87.5655   14.5772 C.3     1  UNL1        0.1350
     24 C          64.0536   86.5370   15.3749 C.ar    1  UNL1        0.0132
     25 C          64.1437   85.0873   15.0003 C.ar    1  UNL1        0.0281
     26 C          63.3982   84.0588   15.7980 C.ar    1  UNL1        0.1399
     27 F          63.4883   82.6091   15.4234 F       1  UNL1       -0.2042
     28 C          62.5624   84.4800   16.9704 C.ar    1  UNL1        0.0305
     29 C          62.4723   85.9296   17.3449 C.ar    1  UNL1        0.0134
     30 C          63.2178   86.9582   16.5472 C.ar    1  UNL1        0.0557
     31 CL         63.1277   88.4078   16.9218 Cl      1  UNL1       -0.0825
     32 C          61.3118   90.0485    9.7134 C.3     1  UNL1        0.1131
     33 C          59.9198   90.5330    9.9917 C.3     1  UNL1        0.0563
     34 C          59.4475   90.6853   11.4072 C.3     1  UNL1        0.1392
     35 O          58.4069   91.7116   11.7444 O.3     1  UNL1       -0.3819
     36 H          58.7690   92.5995   11.5977 H       1  UNL1        0.2104
@<TRIPOS>BOND
     1     1     2    1
     2     2     3   ar
     3     3     4    2
     4     3     5   ar
     5     5     6   ar
     6     6     7   ar
     7     7     8   ar
     8     8    13    1
     9    13    14    1
    10    14    15    1
    11    15    16    1
    12    16    17    1
    13    17    18    1
    14    17    19    1
    15    17    20    1
    16     8     9   ar
    17     9    23    1
    18    23    24    1
    19    24    25   ar
    20    25    26   ar
    21    26    27    1
    22    26    28   ar
    23    28    29   ar
    24    29    30   ar
    25    30    31    1
    26     6    10   ar
    27    10    32    1
    28    32    33    1
    29    33    34    1
    30    34    35    1
    31    10    11   ar
    32    11    12    2
    33    11     2   ar
    34     9     5   ar
    35    30    24   ar
    36    20    13    1
    37    19    21    1
    38    19    22    1
    39    35    36    1
@<TRIPOS>MOLECULE
*****
 36 39 0 0 0
SMALL
GASTEIGER

@<TRIPOS>ATOM
      1 C          62.7318   80.3789   11.8393 C.3     1  UNL1        0.1383
      2 N          62.7591   81.7854   12.3601 N.ar    1  UNL1       -0.2455
      3 C          62.8869   82.9360   11.4063 C.ar    1  UNL1        0.2816
      4 O          62.9875   82.6801    9.9317 O.2     1  UNL1       -0.2652
      5 C          62.9142   84.3424   11.9270 C.ar    1  UNL1        0.1342
      6 C          62.8136   84.5982   13.4016 C.ar    1  UNL1        0.0871
      7 C          62.8677   86.0813   13.6196 C.ar    1  UNL1        0.0515
      8 C          63.0017   86.7421   12.2796 C.ar    1  UNL1        0.1142
      9 N          63.0304   85.6674   11.2336 N.ar    1  UNL1       -0.3068
     10 N          62.6858   83.4477   14.3555 N.ar    1  UNL1       -0.2795
     11 C          62.6585   82.0412   13.8346 C.ar    1  UNL1        0.3339
     12 O          62.5307   80.8905   14.7885 O.2     1  UNL1       -0.2462
     13 N          63.0912   88.2184   12.0296 N.pl3   1  UNL1       -0.2932
     14 C          62.4484   88.8132   10.8118 C.3     1  UNL1        0.0922
     15 C          62.5380   90.2895   10.5618 C.3     1  UNL1        0.0228
     16 C          63.2704   91.1710   11.5296 C.3     1  UNL1        0.0177
     17 C          63.9131   90.5763   12.7474 C.3     1  UNL1        0.0575
     18 C          64.6795   90.4829   14.0335 C.3     1  UNL1        0.0173
     19 N          64.2689   92.0201   12.9440 N.3     1  UNL1       -0.3219
     20 C          63.8235   89.0999   12.9974 C.3     1  UNL1        0.1062
     21 H          63.8908   92.5714   12.1736 H       1  UNL1        0.1188
     22 H          65.2837   92.1201   12.9678 H       1  UNL1        0.1188
     23 C          63.1537   85.8803    9.7539 C.3     1  UNL1        0.1350
     24 C          61.9208   85.9937    8.9072 C.ar    1  UNL1        0.0132
     25 C          60.7478   86.7922    9.3935 C.ar    1  UNL1        0.0281
     26 C          59.5148   86.9055    8.5468 C.ar    1  UNL1        0.1399
     27 F          58.3418   87.7040    9.0331 F       1  UNL1       -0.2042
     28 C          59.4548   86.2204    7.2137 C.ar    1  UNL1        0.0305
     29 C          60.6277   85.4219    6.7275 C.ar    1  UNL1        0.0134
     30 C          61.8608   85.3085    7.5741 C.ar    1  UNL1        0.0557
     31 CL         63.0337   84.5100    7.0878 Cl      1  UNL1       -0.0825
     32 C          62.5852   83.7034   15.8301 C.3     1  UNL1        0.1131
     33 C          63.2345   84.9168   16.4268 C.3     1  UNL1        0.0563
     34 C          62.4046   85.9256   17.1640 C.3     1  UNL1        0.1392
     35 O          60.9474   86.0773   16.8420 O.3     1  UNL1       -0.3819
     36 H          60.8495   86.4158   15.9383 H       1  UNL1        0.2104
@<TRIPOS>BOND
     1     1     2    1
     2     2     3   ar
     3     3     4    2
     4     3     5   ar
     5     5     6   ar
     6     6     7   ar
     7     7     8   ar
     8     8    13    1
     9    13    14    1
    10    14    15    1
    11    15    16    1
    12    16    17    1
    13    17    18    1
    14    17    19    1
    15    17    20    1
    16     8     9   ar
    17     9    23    1
    18    23    24    1
    19    24    25   ar
    20    25    26   ar
    21    26    27    1
    22    26    28   ar
    23    28    29   ar
    24    29    30   ar
    25    30    31    1
    26     6    10   ar
    27    10    32    1
    28    32    33    1
    29    33    34    1
    30    34    35    1
    31    10    11   ar
    32    11    12    2
    33    11     2   ar
    34     9     5   ar
    35    30    24   ar
    36    20    13    1
    37    19    21    1
    38    19    22    1
    39    35    36    1
