@<TRIPOS>MOLECULE
*****
 47 53 0 0 0
SMALL
GASTEIGER

@<TRIPOS>ATOM
      1 C          60.3366   88.2101    8.6640 C.3     1  UNL1        0.1540
      2 O          57.9907   89.3377    7.1723 O.2     1  UNL1       -0.2526
      3 C          59.3867   89.6932    6.7541 C.2     1  UNL1        0.3043
      4 N          60.5596   89.1294    7.4999 N.am    1  UNL1       -0.2822
      5 N          59.6097   90.6125    5.5900 N.am    1  UNL1       -0.2641
      6 C          58.4367   91.1764    4.8442 C.3     1  UNL1        0.0966
      7 C          58.6598   92.0957    3.6801 C.3     1  UNL1        0.0415
      8 C          60.0557   92.4513    3.2619 C.3     1  UNL1        0.0806
      9 C          61.2286   91.8875    4.0078 C.3     1  UNL1        0.0415
     10 C          61.0057   90.9681    5.1718 C.3     1  UNL1        0.0966
     11 H          61.4758   89.3628    7.2255 H       1  UNL1        0.1514
     12 N          60.2787   93.3706    2.0978 N.am    1  UNL1       -0.2613
     13 C          60.5885   92.8046    0.7437 C.3     1  UNL1        0.1228
     14 C          60.8115   93.7241   -0.4204 C.ar    1  UNL1        0.0112
     15 C          61.1213   93.1581   -1.7745 C.ar    1  UNL1       -0.0014
     16 C          61.3443   94.0774   -2.9385 C.ar    1  UNL1       -0.0002
     17 C          61.2574   95.5628   -2.7485 C.ar    1  UNL1        0.0013
     18 C          60.9476   96.1288   -1.3943 C.ar    1  UNL1        0.0144
     19 C          60.7247   95.2094   -0.2303 C.ar    1  UNL1        0.0492
     20 N          60.4149   95.7754    1.1239 N.am    1  UNL1       -0.2684
     21 C          60.1919   94.8560    2.2879 C.2     1  UNL1        0.3079
     22 O          59.8821   95.4220    3.6420 O.2     1  UNL1       -0.2522
     23 H          60.3579   96.7503    1.2486 H       1  UNL1        0.1564
     24 C          60.1659   88.7742   10.0433 C.2     1  UNL1        0.2439
     25 O          58.8669   88.5943   10.7717 O.2     1  UNL1       -0.2731
     26 N          61.2940   89.5183   10.6943 N.am    1  UNL1       -0.2781
     27 C          62.5928   89.6981    9.9659 C.3     1  UNL1        0.0948
     28 C          63.7210   90.4422   10.6168 C.3     1  UNL1        0.0375
     29 C          63.5502   91.0064   11.9961 C.3     1  UNL1        0.0609
     30 C          62.2513   90.8265   12.7245 C.3     1  UNL1        0.0375
     31 C          61.1232   90.0824   12.0736 C.3     1  UNL1        0.0948
     32 N          64.6783   91.7504   12.6471 N.3     1  UNL1       -0.2738
     33 C          65.3425   92.8858   11.9263 C.3     1  UNL1        0.0720
     34 C          66.4707   93.6300   12.5773 C.3     1  UNL1        0.0174
     35 C          66.9346   93.2385   13.9490 C.3     1  UNL1        0.0029
     36 C          66.2703   92.1030   14.6698 C.3     1  UNL1        0.0174
     37 C          65.1422   91.3590   14.0188 C.3     1  UNL1        0.0720
     38 C          60.2844   86.7264    8.4487 C.3     1  UNL1        0.0514
     39 C          61.3934   85.8550    8.9593 C.2     1  UNL1       -0.0375
     40 C          62.3782   85.2552    8.0000 C.2     1  UNL1       -0.0065
     41 C          63.4872   84.3837    8.5106 C.2     1  UNL1        0.0200
     42 C          63.6114   84.1121    9.9806 C.2     1  UNL1        0.1007
     43 N          64.5928   83.2991   10.7717 N.2     1  UNL1       -0.1482
     44 N          64.2146   83.3965   12.2199 N.2     1  UNL1       -0.1467
     45 C          62.9994   84.2697   12.3239 C.2     1  UNL1        0.1197
     46 C          62.6266   84.7120   10.9399 C.2     1  UNL1        0.0222
     47 C          61.5176   85.5834   10.4293 C.3     1  UNL1        0.0516
@<TRIPOS>BOND
     1     2     3    2
     2     3     4   am
     3     4     1    1
     4     1    38    1
     5    38    39    1
     6    39    40    2
     7    40    41    1
     8    41    42    2
     9    42    43    1
    10    43    44    2
    11    44    45    1
    12    45    46    2
    13    46    47    1
    14     1    24    1
    15    24    25    2
    16    24    26   am
    17    26    27    1
    18    27    28    1
    19    28    29    1
    20    29    32    1
    21    32    33    1
    22    33    34    1
    23    34    35    1
    24    35    36    1
    25    36    37    1
    26    29    30    1
    27    30    31    1
    28     3     5   am
    29     5     6    1
    30     6     7    1
    31     7     8    1
    32     8    12    1
    33    12    13    1
    34    13    14    1
    35    14    15   ar
    36    15    16   ar
    37    16    17   ar
    38    17    18   ar
    39    18    19   ar
    40    19    20    1
    41    20    21   am
    42    21    22    2
    43     8     9    1
    44     9    10    1
    45    47    39    1
    46    31    26    1
    47    10     5    1
    48    46    42    1
    49    37    32    1
    50    21    12   am
    51    19    14   ar
    52     4    11    1
    53    20    23    1
@<TRIPOS>MOLECULE
*****
 47 53 0 0 0
SMALL
GASTEIGER

@<TRIPOS>ATOM
      1 C          59.5789   88.6955    7.5682 C.3     1  UNL1        0.1540
      2 O          59.5995   88.6869   10.5681 O.2     1  UNL1       -0.2526
      3 C          60.7040   89.3644    9.8124 C.2     1  UNL1        0.3043
      4 N          60.6936   89.3687    8.3125 N.am    1  UNL1       -0.2822
      5 N          61.8187   90.0376   10.5567 N.am    1  UNL1       -0.2641
      6 C          61.8291   90.0333   12.0567 C.3     1  UNL1        0.0966
      7 C          62.9439   90.7066   12.8010 C.3     1  UNL1        0.0415
      8 C          64.0484   91.3841   12.0453 C.3     1  UNL1        0.0806
      9 C          64.0381   91.3884   10.5453 C.3     1  UNL1        0.0415
     10 C          62.9233   90.7152    9.8010 C.3     1  UNL1        0.0966
     11 H          61.4186   89.8134    7.8165 H       1  UNL1        0.1514
     12 N          65.1632   92.0573   12.7896 N.am    1  UNL1       -0.2613
     13 C          65.7365   91.4189   14.0199 C.3     1  UNL1        0.1228
     14 C          66.8513   92.0921   14.7642 C.ar    1  UNL1        0.0112
     15 C          67.4246   91.4537   15.9945 C.ar    1  UNL1       -0.0014
     16 C          68.5394   92.1269   16.7388 C.ar    1  UNL1       -0.0002
     17 C          69.0809   93.4386   16.2527 C.ar    1  UNL1        0.0013
     18 C          68.5076   94.0771   15.0224 C.ar    1  UNL1        0.0144
     19 C          67.3928   93.4038   14.2781 C.ar    1  UNL1        0.0492
     20 N          66.8195   94.0423   13.0478 N.am    1  UNL1       -0.2684
     21 C          65.7047   93.3690   12.3035 C.2     1  UNL1        0.3079
     22 O          65.1314   94.0075   11.0732 O.2     1  UNL1       -0.2522
     23 H          67.1749   94.9032   12.7288 H       1  UNL1        0.1564
     24 C          58.6539   89.5058    6.7092 C.2     1  UNL1        0.2439
     25 O          57.1693   89.3919    6.8907 O.2     1  UNL1       -0.2731
     26 N          59.2136   90.4299    5.6686 N.am    1  UNL1       -0.2781
     27 C          60.6982   90.5437    5.4871 C.3     1  UNL1        0.0948
     28 C          61.2579   91.4678    4.4465 C.3     1  UNL1        0.0375
     29 C          60.3329   92.2781    3.5875 C.3     1  UNL1        0.0609
     30 C          58.8483   92.1642    3.7690 C.3     1  UNL1        0.0375
     31 C          58.2886   91.2401    4.8096 C.3     1  UNL1        0.0948
     32 N          60.8926   93.2022    2.5469 N.3     1  UNL1       -0.2738
     33 C          62.1877   92.8697    1.8672 C.3     1  UNL1        0.0720
     34 C          62.7474   93.7938    0.8266 C.3     1  UNL1        0.0174
     35 C          62.0120   95.0504    0.4658 C.3     1  UNL1        0.0029
     36 C          60.7168   95.3828    1.1456 C.3     1  UNL1        0.0174
     37 C          60.1571   94.4587    2.1861 C.3     1  UNL1        0.0720
     38 C          59.3890   87.2119    7.6830 C.3     1  UNL1        0.0514
     39 C          60.5280   86.3420    8.1253 C.2     1  UNL1       -0.0375
     40 C          61.4086   85.6831    7.1053 C.2     1  UNL1       -0.0065
     41 C          62.5477   84.8131    7.5477 C.2     1  UNL1        0.0200
     42 C          62.8062   84.6021    9.0101 C.2     1  UNL1        0.1007
     43 N          63.8457   83.8050    9.7408 N.2     1  UNL1       -0.1482
     44 N          63.6077   83.9712   11.2125 N.2     1  UNL1       -0.1467
     45 C          62.4210   84.8711   11.3912 C.2     1  UNL1        0.1197
     46 C          61.9257   85.2611   10.0301 C.2     1  UNL1        0.0222
     47 C          60.7866   86.1310    9.5878 C.3     1  UNL1        0.0516
@<TRIPOS>BOND
     1     2     3    2
     2     3     4   am
     3     4     1    1
     4     1    38    1
     5    38    39    1
     6    39    40    2
     7    40    41    1
     8    41    42    2
     9    42    43    1
    10    43    44    2
    11    44    45    1
    12    45    46    2
    13    46    47    1
    14     1    24    1
    15    24    25    2
    16    24    26   am
    17    26    27    1
    18    27    28    1
    19    28    29    1
    20    29    32    1
    21    32    33    1
    22    33    34    1
    23    34    35    1
    24    35    36    1
    25    36    37    1
    26    29    30    1
    27    30    31    1
    28     3     5   am
    29     5     6    1
    30     6     7    1
    31     7     8    1
    32     8    12    1
    33    12    13    1
    34    13    14    1
    35    14    15   ar
    36    15    16   ar
    37    16    17   ar
    38    17    18   ar
    39    18    19   ar
    40    19    20    1
    41    20    21   am
    42    21    22    2
    43     8     9    1
    44     9    10    1
    45    47    39    1
    46    31    26    1
    47    10     5    1
    48    46    42    1
    49    37    32    1
    50    21    12   am
    51    19    14   ar
    52     4    11    1
    53    20    23    1
