@<TRIPOS>MOLECULE
*****
 28 31 0 0 0
SMALL
GASTEIGER

@<TRIPOS>ATOM
      1 C          62.3139   86.9704   17.9675 C.3     1  UNL1        0.0233
      2 C          63.0741   87.5695   16.8216 C.3     1  UNL1        0.0956
      3 C          63.1998   89.0595   16.7022 C.3     1  UNL1        0.1135
      4 N          63.9600   89.6586   15.5563 N.am    1  UNL1       -0.2726
      5 C          64.0857   91.1486   15.4370 C.2     1  UNL1        0.2491
      6 O          63.4513   92.0394   16.4636 O.2     1  UNL1       -0.2699
      7 C          64.5945   88.7678   14.5297 C.3     1  UNL1        0.1152
      8 C          64.4687   87.2779   14.6490 C.3     1  UNL1        0.1153
      9 N          63.7085   86.6788   15.7949 N.am    1  UNL1       -0.2716
     10 C          63.5827   85.1888   15.9143 C.2     1  UNL1        0.2883
     11 O          62.8225   84.5897   17.0602 O.2     1  UNL1       -0.2664
     12 C          64.8459   91.7477   14.2911 C.ar    1  UNL1        0.0536
     13 C          64.3216   91.6149   12.8920 C.ar    1  UNL1        0.0045
     14 C          65.0818   92.2140   11.7461 C.ar    1  UNL1        0.0001
     15 C          66.3664   92.9460   11.9992 C.ar    1  UNL1        0.0000
     16 C          66.8907   93.0787   13.3983 C.ar    1  UNL1        0.0001
     17 C          66.1306   92.4796   14.5442 C.ar    1  UNL1        0.0045
     18 C          64.2172   84.2979   14.8876 C.2     1  UNL1        0.2516
     19 O          65.6584   84.4877   14.5179 O.2     1  UNL1       -0.2816
     20 C          63.4103   83.2174   14.2308 C.2     1  UNL1        0.0814
     21 C          62.2954   82.4401   14.8655 C.2     1  UNL1        0.1034
     22 N          61.7728   81.4668   13.8509 N.2     1  UNL1       -0.2461
     23 C          62.5647   81.6424   12.5892 C.2     1  UNL1        0.0811
     24 C          62.4950   80.9570   11.2568 C.3     1  UNL1        0.0749
     25 C          63.4374   81.3535   10.1592 C.2     1  UNL1        0.0009
     26 C          64.4494   82.4354   10.3940 C.2     1  UNL1        0.0947
     27 N          64.5191   83.1209   11.7264 N.2     1  UNL1       -0.2428
     28 C          63.5768   82.7244   12.8240 C.2     1  UNL1        0.0998
@<TRIPOS>BOND
     1     2     1    1
     2     2     3    1
     3     3     4    1
     4     4     5   am
     5     5     6    2
     6     5    12    1
     7    12    13   ar
     8    13    14   ar
     9    14    15   ar
    10    15    16   ar
    11    16    17   ar
    12     4     7    1
    13     7     8    1
    14     8     9    1
    15     9    10   am
    16    10    11    2
    17    10    18    1
    18    18    19    2
    19    18    20    1
    20    20    21    2
    21    21    22    1
    22    22    23    2
    23    23    24    1
    24    24    25    1
    25    25    26    2
    26    26    27    1
    27    27    28    2
    28     9     2    1
    29    28    20    1
    30    17    12   ar
    31    28    23    1
@<TRIPOS>MOLECULE
*****
 28 31 0 0 0
SMALL
GASTEIGER

@<TRIPOS>ATOM
      1 C          63.0085   90.1002   14.9169 C.3     1  UNL1        0.0233
      2 C          63.4879   90.6711   13.6152 C.3     1  UNL1        0.0956
      3 C          64.8550   91.2815   13.5221 C.3     1  UNL1        0.1135
      4 N          65.3344   91.8524   12.2205 N.am    1  UNL1       -0.2726
      5 C          66.7014   92.4628   12.1275 C.2     1  UNL1        0.2491
      6 O          67.5891   92.5023   13.3360 O.2     1  UNL1       -0.2699
      7 C          64.4468   91.8129   11.0119 C.3     1  UNL1        0.1152
      8 C          63.0798   91.2025   11.1050 C.3     1  UNL1        0.1153
      9 N          62.6004   90.6316   12.4067 N.am    1  UNL1       -0.2716
     10 C          61.2334   90.0212   12.4998 C.2     1  UNL1        0.2883
     11 O          60.7540   89.4504   13.8014 O.2     1  UNL1       -0.2664
     12 C          67.1808   93.0337   10.8258 C.ar    1  UNL1        0.0536
     13 C          68.0346   92.2050    9.9125 C.ar    1  UNL1        0.0045
     14 C          68.5140   92.7759    8.6109 C.ar    1  UNL1        0.0001
     15 C          68.1396   94.1755    8.2225 C.ar    1  UNL1        0.0000
     16 C          67.2859   95.0042    9.1359 C.ar    1  UNL1        0.0001
     17 C          66.8065   94.4334   10.4375 C.ar    1  UNL1        0.0045
     18 C          60.3457   89.9817   11.2912 C.2     1  UNL1        0.2516
     19 O          59.2561   90.9995   11.1274 O.2     1  UNL1       -0.2816
     20 C          60.5478   88.9244   10.2465 C.2     1  UNL1        0.0814
     21 C          60.0437   88.9724    8.8346 C.2     1  UNL1        0.1034
     22 N          60.4737   87.7111    8.1458 N.2     1  UNL1       -0.2461
     23 C          61.2436   86.8837    9.1321 C.2     1  UNL1        0.0811
     24 C          61.9089   85.5444    9.0157 C.3     1  UNL1        0.0749
     25 C          62.6199   84.9550   10.1976 C.2     1  UNL1        0.0009
     26 C          62.6657   85.7049   11.4959 C.2     1  UNL1        0.0947
     27 N          62.0004   87.0442   11.6123 N.2     1  UNL1       -0.2428
     28 C          61.2894   87.6336   10.4304 C.2     1  UNL1        0.0998
@<TRIPOS>BOND
     1     2     1    1
     2     2     3    1
     3     3     4    1
     4     4     5   am
     5     5     6    2
     6     5    12    1
     7    12    13   ar
     8    13    14   ar
     9    14    15   ar
    10    15    16   ar
    11    16    17   ar
    12     4     7    1
    13     7     8    1
    14     8     9    1
    15     9    10   am
    16    10    11    2
    17    10    18    1
    18    18    19    2
    19    18    20    1
    20    20    21    2
    21    21    22    1
    22    22    23    2
    23    23    24    1
    24    24    25    1
    25    25    26    2
    26    26    27    1
    27    27    28    2
    28     9     2    1
    29    28    20    1
    30    17    12   ar
    31    28    23    1
@<TRIPOS>MOLECULE
*****
 28 31 0 0 0
SMALL
GASTEIGER

@<TRIPOS>ATOM
      1 C          62.1753   86.7772   17.7249 C.3     1  UNL1        0.0233
      2 C          63.0017   87.4764   16.6865 C.3     1  UNL1        0.0956
      3 C          63.1545   88.9680   16.7290 C.3     1  UNL1        0.1135
      4 N          63.9809   89.6672   15.6907 N.am    1  UNL1       -0.2726
      5 C          64.1336   91.1588   15.7333 C.2     1  UNL1        0.2491
      6 O          63.4601   91.9512   16.8142 O.2     1  UNL1       -0.2699
      7 C          64.6545   88.8749   14.6098 C.3     1  UNL1        0.1152
      8 C          64.5016   87.3833   14.5672 C.3     1  UNL1        0.1153
      9 N          63.6752   86.6841   15.6056 N.am    1  UNL1       -0.2716
     10 C          63.5224   85.1925   15.5631 C.2     1  UNL1        0.2883
     11 O          62.6960   84.4933   16.6015 O.2     1  UNL1       -0.2664
     12 C          64.9600   91.8580   14.6949 C.ar    1  UNL1        0.0536
     13 C          64.5854   91.7580   13.2459 C.ar    1  UNL1        0.0045
     14 C          65.4118   92.4572   12.2076 C.ar    1  UNL1        0.0001
     15 C          66.6129   93.2564   12.6182 C.ar    1  UNL1        0.0000
     16 C          66.9875   93.3564   14.0672 C.ar    1  UNL1        0.0001
     17 C          66.1611   92.6572   15.1055 C.ar    1  UNL1        0.0045
     18 C          64.1960   84.4000   14.4821 C.2     1  UNL1        0.2516
     19 O          65.5864   83.8774   14.6910 O.2     1  UNL1       -0.2816
     20 C          63.4792   84.1303   13.1924 C.2     1  UNL1        0.0814
     21 C          63.1804   82.7782   12.6159 C.2     1  UNL1        0.1034
     22 N          62.4519   82.9776   11.3199 N.2     1  UNL1       -0.2461
     23 C          62.3005   84.4530   11.0955 C.2     1  UNL1        0.0811
     24 C          61.6665   85.2398    9.9869 C.3     1  UNL1        0.0749
     25 C          61.6675   86.7389   10.0356 C.2     1  UNL1        0.0009
     26 C          62.3025   87.4514   11.1929 C.2     1  UNL1        0.0947
     27 N          62.9364   86.6646   12.3014 N.2     1  UNL1       -0.2428
     28 C          62.9354   85.1654   12.2528 C.2     1  UNL1        0.0998
@<TRIPOS>BOND
     1     2     1    1
     2     2     3    1
     3     3     4    1
     4     4     5   am
     5     5     6    2
     6     5    12    1
     7    12    13   ar
     8    13    14   ar
     9    14    15   ar
    10    15    16   ar
    11    16    17   ar
    12     4     7    1
    13     7     8    1
    14     8     9    1
    15     9    10   am
    16    10    11    2
    17    10    18    1
    18    18    19    2
    19    18    20    1
    20    20    21    2
    21    21    22    1
    22    22    23    2
    23    23    24    1
    24    24    25    1
    25    25    26    2
    26    26    27    1
    27    27    28    2
    28     9     2    1
    29    28    20    1
    30    17    12   ar
    31    28    23    1
@<TRIPOS>MOLECULE
*****
 28 31 0 0 0
SMALL
GASTEIGER

@<TRIPOS>ATOM
      1 C          63.4074   90.4436   15.3604 C.3     1  UNL1        0.0233
      2 C          63.8395   90.8882   13.9945 C.3     1  UNL1        0.0956
      3 C          65.1188   91.6527   13.8244 C.3     1  UNL1        0.1135
      4 N          65.5509   92.0973   12.4586 N.am    1  UNL1       -0.2726
      5 C          66.8302   92.8618   12.2885 C.2     1  UNL1        0.2491
      6 O          67.6775   93.1816   13.4843 O.2     1  UNL1       -0.2699
      7 C          64.7037   91.7775   11.2628 C.3     1  UNL1        0.1152
      8 C          63.4244   91.0130   11.4329 C.3     1  UNL1        0.1153
      9 N          62.9923   90.5684   12.7988 N.am    1  UNL1       -0.2716
     10 C          61.7130   89.8039   12.9689 C.2     1  UNL1        0.2883
     11 O          61.2809   89.3593   14.3348 O.2     1  UNL1       -0.2664
     12 C          67.2623   93.3064   10.9227 C.ar    1  UNL1        0.0536
     13 C          66.9137   94.6818   10.4364 C.ar    1  UNL1        0.0045
     14 C          67.3457   95.1265    9.0705 C.ar    1  UNL1        0.0001
     15 C          68.1265   94.1956    8.1908 C.ar    1  UNL1        0.0000
     16 C          68.4751   92.8201    8.6771 C.ar    1  UNL1        0.0001
     17 C          68.0431   92.3755   10.0429 C.ar    1  UNL1        0.0045
     18 C          60.8657   89.4840   11.7730 C.2     1  UNL1        0.2516
     19 O          59.7724   90.4225   11.3560 O.2     1  UNL1       -0.2816
     20 C          61.1118   88.2258   10.9944 C.2     1  UNL1        0.0814
     21 C          62.0300   87.1083   11.3920 C.2     1  UNL1        0.1034
     22 N          61.9685   86.0560   10.3249 N.2     1  UNL1       -0.2461
     23 C          61.0123   86.5231    9.2677 C.2     1  UNL1        0.0811
     24 C          60.5554   85.9006    7.9818 C.3     1  UNL1        0.0749
     25 C          59.5689   86.6192    7.1097 C.2     1  UNL1        0.0009
     26 C          59.0394   87.9602    7.5235 C.2     1  UNL1        0.0947
     27 N          59.4964   88.5827    8.8095 N.2     1  UNL1       -0.2428
     28 C          60.4828   87.8641    9.6816 C.2     1  UNL1        0.0998
@<TRIPOS>BOND
     1     2     1    1
     2     2     3    1
     3     3     4    1
     4     4     5   am
     5     5     6    2
     6     5    12    1
     7    12    13   ar
     8    13    14   ar
     9    14    15   ar
    10    15    16   ar
    11    16    17   ar
    12     4     7    1
    13     7     8    1
    14     8     9    1
    15     9    10   am
    16    10    11    2
    17    10    18    1
    18    18    19    2
    19    18    20    1
    20    20    21    2
    21    21    22    1
    22    22    23    2
    23    23    24    1
    24    24    25    1
    25    25    26    2
    26    26    27    1
    27    27    28    2
    28     9     2    1
    29    28    20    1
    30    17    12   ar
    31    28    23    1
@<TRIPOS>MOLECULE
*****
 28 31 0 0 0
SMALL
GASTEIGER

@<TRIPOS>ATOM
      1 C          63.1727   87.5329   17.6203 C.3     1  UNL1        0.0233
      2 C          63.3044   86.9750   16.2341 C.3     1  UNL1        0.0956
      3 C          63.3091   85.4903   16.0205 C.3     1  UNL1        0.1135
      4 N          63.4407   84.9324   14.6344 N.am    1  UNL1       -0.2726
      5 C          63.4454   83.4476   14.4209 C.2     1  UNL1        0.2491
      6 O          63.3184   82.5208   15.5934 O.2     1  UNL1       -0.2699
      7 C          63.5677   85.8591   13.4618 C.3     1  UNL1        0.1152
      8 C          63.5631   87.3438   13.6754 C.3     1  UNL1        0.1153
      9 N          63.4314   87.9017   15.0616 N.am    1  UNL1       -0.2716
     10 C          63.4267   89.3864   15.2752 C.2     1  UNL1        0.2883
     11 O          63.2951   89.9443   16.6613 O.2     1  UNL1       -0.2664
     12 C          63.5770   82.8897   13.0347 C.ar    1  UNL1        0.0536
     13 C          64.5165   83.5284   12.0552 C.ar    1  UNL1        0.0045
     14 C          64.6481   82.9705   10.6691 C.ar    1  UNL1        0.0001
     15 C          63.8403   81.7739   10.2624 C.ar    1  UNL1        0.0000
     16 C          62.9009   81.1351   11.2419 C.ar    1  UNL1        0.0001
     17 C          62.7692   81.6930   12.6280 C.ar    1  UNL1        0.0045
     18 C          63.5537   90.3133   14.1025 C.2     1  UNL1        0.2516
     19 O          62.5752   90.2270   12.9691 O.2     1  UNL1       -0.2816
     20 C          64.6593   91.3263   14.0635 C.2     1  UNL1        0.0814
     21 C          65.4930   91.7668   15.2301 C.2     1  UNL1        0.1034
     22 N          66.4743   92.7894   14.7386 N.2     1  UNL1       -0.2461
     23 C          66.2470   92.9808   13.2683 C.2     1  UNL1        0.0811
     24 C          66.9165   93.8617   12.2556 C.3     1  UNL1        0.0749
     25 C          66.4642   93.8384   10.8256 C.2     1  UNL1        0.0009
     26 C          65.3425   92.9341   10.4083 C.2     1  UNL1        0.0947
     27 N          64.6730   92.0532   11.4211 N.2     1  UNL1       -0.2428
     28 C          65.1252   92.0766   12.8511 C.2     1  UNL1        0.0998
@<TRIPOS>BOND
     1     2     1    1
     2     2     3    1
     3     3     4    1
     4     4     5   am
     5     5     6    2
     6     5    12    1
     7    12    13   ar
     8    13    14   ar
     9    14    15   ar
    10    15    16   ar
    11    16    17   ar
    12     4     7    1
    13     7     8    1
    14     8     9    1
    15     9    10   am
    16    10    11    2
    17    10    18    1
    18    18    19    2
    19    18    20    1
    20    20    21    2
    21    21    22    1
    22    22    23    2
    23    23    24    1
    24    24    25    1
    25    25    26    2
    26    26    27    1
    27    27    28    2
    28     9     2    1
    29    28    20    1
    30    17    12   ar
    31    28    23    1
@<TRIPOS>MOLECULE
*****
 28 31 0 0 0
SMALL
GASTEIGER

@<TRIPOS>ATOM
      1 C          60.6094   86.7205    7.7744 C.3     1  UNL1        0.0233
      2 C          61.1733   86.5690    9.1561 C.3     1  UNL1        0.0956
      3 C          61.6535   85.2283    9.6274 C.3     1  UNL1        0.1135
      4 N          62.2174   85.0768   11.0090 N.am    1  UNL1       -0.2726
      5 C          62.6975   83.7360   11.4802 C.2     1  UNL1        0.2491
      6 O          62.6137   82.5469   10.5698 O.2     1  UNL1       -0.2699
      7 C          62.3012   86.2659   11.9195 C.3     1  UNL1        0.1152
      8 C          61.8210   87.6065   11.4482 C.3     1  UNL1        0.1153
      9 N          61.2571   87.7580   10.0665 N.am    1  UNL1       -0.2716
     10 C          60.7770   89.0987    9.5953 C.2     1  UNL1        0.2883
     11 O          60.2131   89.2502    8.2136 O.2     1  UNL1       -0.2664
     12 C          63.2614   83.5845   12.8619 C.ar    1  UNL1        0.0536
     13 C          64.6329   84.1058   13.1736 C.ar    1  UNL1        0.0045
     14 C          65.1968   83.9542   14.5552 C.ar    1  UNL1        0.0001
     15 C          64.3892   83.2815   15.6254 C.ar    1  UNL1        0.0000
     16 C          63.0176   82.7603   15.3137 C.ar    1  UNL1        0.0001
     17 C          62.4537   82.9118   13.9320 C.ar    1  UNL1        0.0045
     18 C          60.8608   90.2879   10.5057 C.2     1  UNL1        0.2516
     19 O          59.6058   90.9270   11.0220 O.2     1  UNL1       -0.2816
     20 C          62.1995   90.8380   10.8998 C.2     1  UNL1        0.0814
     21 C          63.1333   91.6058   10.0118 C.2     1  UNL1        0.1034
     22 N          64.3503   91.9591   10.8143 N.2     1  UNL1       -0.2461
     23 C          64.1688   91.4096   12.1981 C.2     1  UNL1        0.0811
     24 C          65.0421   91.4507   13.4169 C.3     1  UNL1        0.0749
     25 C          64.5861   90.7989   14.6886 C.2     1  UNL1        0.0009
     26 C          63.2568   90.1060   14.7415 C.2     1  UNL1        0.0947
     27 N          62.3835   90.0649   13.5226 N.2     1  UNL1       -0.2428
     28 C          62.8395   90.7167   12.2510 C.2     1  UNL1        0.0998
@<TRIPOS>BOND
     1     2     1    1
     2     2     3    1
     3     3     4    1
     4     4     5   am
     5     5     6    2
     6     5    12    1
     7    12    13   ar
     8    13    14   ar
     9    14    15   ar
    10    15    16   ar
    11    16    17   ar
    12     4     7    1
    13     7     8    1
    14     8     9    1
    15     9    10   am
    16    10    11    2
    17    10    18    1
    18    18    19    2
    19    18    20    1
    20    20    21    2
    21    21    22    1
    22    22    23    2
    23    23    24    1
    24    24    25    1
    25    25    26    2
    26    26    27    1
    27    27    28    2
    28     9     2    1
    29    28    20    1
    30    17    12   ar
    31    28    23    1
@<TRIPOS>MOLECULE
*****
 28 31 0 0 0
SMALL
GASTEIGER

@<TRIPOS>ATOM
      1 C          48.7142   75.1052   19.8015 C.3     1  UNL1        0.0233
      2 C          47.6455   75.9513   19.1752 C.3     1  UNL1        0.0956
      3 C          47.8835   77.4151   18.9504 C.3     1  UNL1        0.1135
      4 N          46.8149   78.2611   18.3241 N.am    1  UNL1       -0.2726
      5 C          47.0529   79.7250   18.0992 C.2     1  UNL1        0.2491
      6 O          48.3595   80.3428   18.5007 O.2     1  UNL1       -0.2699
      7 C          45.5083   77.6434   17.9226 C.3     1  UNL1        0.1152
      8 C          45.2703   76.1796   18.1475 C.3     1  UNL1        0.1153
      9 N          46.3390   75.3336   18.7738 N.am    1  UNL1       -0.2716
     10 C          46.1010   73.8697   18.9986 C.2     1  UNL1        0.2883
     11 O          47.1696   73.0237   19.6249 O.2     1  UNL1       -0.2664
     12 C          45.9843   80.5710   17.4729 C.ar    1  UNL1        0.0536
     13 C          44.9746   81.2657   18.3377 C.ar    1  UNL1        0.0045
     14 C          43.9060   82.1117   17.7114 C.ar    1  UNL1        0.0001
     15 C          43.8470   82.2631   16.2202 C.ar    1  UNL1        0.0000
     16 C          44.8567   81.5685   15.3554 C.ar    1  UNL1        0.0001
     17 C          45.9253   80.7224   15.9817 C.ar    1  UNL1        0.0045
     18 C          44.7944   73.2519   18.5972 C.2     1  UNL1        0.2516
     19 O          43.7354   73.0001   19.6292 O.2     1  UNL1       -0.2816
     20 C          44.5468   72.8859   17.1637 C.2     1  UNL1        0.0814
     21 C          43.6599   73.6244   16.2057 C.2     1  UNL1        0.1034
     22 N          43.7077   72.9121   14.8865 N.2     1  UNL1       -0.2461
     23 C          44.6242   71.7332   15.0292 C.2     1  UNL1        0.0811
     24 C          45.0536   70.6725   14.0595 C.3     1  UNL1        0.0749
     25 C          46.0015   69.5956   14.4972 C.2     1  UNL1        0.0009
     26 C          46.5201   69.5794   15.9046 C.2     1  UNL1        0.0947
     27 N          46.0908   70.6401   16.8743 N.2     1  UNL1       -0.2428
     28 C          45.1429   71.7171   16.4366 C.2     1  UNL1        0.0998
@<TRIPOS>BOND
     1     2     1    1
     2     2     3    1
     3     3     4    1
     4     4     5   am
     5     5     6    2
     6     5    12    1
     7    12    13   ar
     8    13    14   ar
     9    14    15   ar
    10    15    16   ar
    11    16    17   ar
    12     4     7    1
    13     7     8    1
    14     8     9    1
    15     9    10   am
    16    10    11    2
    17    10    18    1
    18    18    19    2
    19    18    20    1
    20    20    21    2
    21    21    22    1
    22    22    23    2
    23    23    24    1
    24    24    25    1
    25    25    26    2
    26    26    27    1
    27    27    28    2
    28     9     2    1
    29    28    20    1
    30    17    12   ar
    31    28    23    1
@<TRIPOS>MOLECULE
*****
 28 31 0 0 0
SMALL
GASTEIGER

@<TRIPOS>ATOM
      1 C          61.8134   90.0322    9.7210 C.3     1  UNL1        0.0233
      2 C          62.3193   89.0214   10.7071 C.3     1  UNL1        0.0956
      3 C          62.0445   87.5623   10.4934 C.3     1  UNL1        0.1135
      4 N          62.5504   86.5515   11.4794 N.am    1  UNL1       -0.2726
      5 C          62.2756   85.0925   11.2656 C.2     1  UNL1        0.2491
      6 O          61.4948   84.6442   10.0658 O.2     1  UNL1       -0.2699
      7 C          63.3312   86.9997   12.6792 C.3     1  UNL1        0.1152
      8 C          63.6060   88.4587   12.8929 C.3     1  UNL1        0.1153
      9 N          63.1000   89.4695   11.9069 N.am    1  UNL1       -0.2716
     10 C          63.3748   90.9286   12.1206 C.2     1  UNL1        0.2883
     11 O          62.8689   91.9394   11.1346 O.2     1  UNL1       -0.2664
     12 C          62.7815   84.0817   12.2516 C.ar    1  UNL1        0.0536
     13 C          63.7655   83.0366   11.8164 C.ar    1  UNL1        0.0045
     14 C          64.2714   82.0258   12.8025 C.ar    1  UNL1        0.0001
     15 C          63.7933   82.0601   14.2238 C.ar    1  UNL1        0.0000
     16 C          62.8093   83.1051   14.6591 C.ar    1  UNL1        0.0001
     17 C          62.3034   84.1159   13.6730 C.ar    1  UNL1        0.0045
     18 C          64.1556   91.3768   13.3205 C.2     1  UNL1        0.2516
     19 O          63.5065   91.3981   14.6725 O.2     1  UNL1       -0.2816
     20 C          65.5855   91.8037   13.1682 C.2     1  UNL1        0.0814
     21 C          66.3019   92.0395   11.8716 C.2     1  UNL1        0.1034
     22 N          67.7092   92.4513   12.1879 N.2     1  UNL1       -0.2461
     23 C          67.8625   92.4700   13.6799 C.2     1  UNL1        0.0811
     24 C          69.0277   92.7998   14.5651 C.3     1  UNL1        0.0749
     25 C          68.8803   92.7294   16.0561 C.2     1  UNL1        0.0009
     26 C          67.5678   92.3291   16.6620 C.2     1  UNL1        0.0947
     27 N          66.4026   91.9994   15.7768 N.2     1  UNL1       -0.2428
     28 C          66.5500   92.0698   14.2858 C.2     1  UNL1        0.0998
@<TRIPOS>BOND
     1     2     1    1
     2     2     3    1
     3     3     4    1
     4     4     5   am
     5     5     6    2
     6     5    12    1
     7    12    13   ar
     8    13    14   ar
     9    14    15   ar
    10    15    16   ar
    11    16    17   ar
    12     4     7    1
    13     7     8    1
    14     8     9    1
    15     9    10   am
    16    10    11    2
    17    10    18    1
    18    18    19    2
    19    18    20    1
    20    20    21    2
    21    21    22    1
    22    22    23    2
    23    23    24    1
    24    24    25    1
    25    25    26    2
    26    26    27    1
    27    27    28    2
    28     9     2    1
    29    28    20    1
    30    17    12   ar
    31    28    23    1
@<TRIPOS>MOLECULE
*****
 28 31 0 0 0
SMALL
GASTEIGER

@<TRIPOS>ATOM
      1 C          62.2990   90.5995   10.6782 C.3     1  UNL1        0.0233
      2 C          62.5879   89.2262   11.2079 C.3     1  UNL1        0.0956
      3 C          62.4246   88.0295   10.3184 C.3     1  UNL1        0.1135
      4 N          62.7135   86.6562   10.8481 N.am    1  UNL1       -0.2726
      5 C          62.5502   85.4596    9.9585 C.2     1  UNL1        0.2491
      6 O          62.0981   85.6361    8.5392 O.2     1  UNL1       -0.2699
      7 C          63.1656   86.4796   12.2674 C.3     1  UNL1        0.1152
      8 C          63.3289   87.6763   13.1569 C.3     1  UNL1        0.1153
      9 N          63.0400   89.0495   12.6272 N.am    1  UNL1       -0.2716
     10 C          63.2032   90.2462   13.5167 C.2     1  UNL1        0.2883
     11 O          62.9144   91.6195   12.9870 O.2     1  UNL1       -0.2664
     12 C          62.8391   84.0863   10.4882 C.ar    1  UNL1        0.0536
     13 C          63.8473   83.2139    9.8008 C.ar    1  UNL1        0.0045
     14 C          64.1361   81.8406   10.3306 C.ar    1  UNL1        0.0001
     15 C          63.4169   81.3397   11.5478 C.ar    1  UNL1        0.0000
     16 C          62.4088   82.2120   12.2352 C.ar    1  UNL1        0.0001
     17 C          62.1199   83.5853   11.7055 C.ar    1  UNL1        0.0045
     18 C          63.6554   90.0696   14.9361 C.2     1  UNL1        0.2516
     19 O          63.3057   88.8175   15.6843 O.2     1  UNL1       -0.2816
     20 C          64.4572   91.1452   15.6071 C.2     1  UNL1        0.0814
     21 C          64.0345   91.9425   16.8053 C.2     1  UNL1        0.1034
     22 N          65.1386   92.9023   17.1364 N.2     1  UNL1       -0.2461
     23 C          66.2438   92.6981   16.1430 C.2     1  UNL1        0.0811
     24 C          67.5791   93.3608   15.9769 C.3     1  UNL1        0.0749
     25 C          68.4934   92.9375   14.8656 C.2     1  UNL1        0.0009
     26 C          68.0723   91.8515   13.9205 C.2     1  UNL1        0.0947
     27 N          66.7369   91.1889   14.0866 N.2     1  UNL1       -0.2428
     28 C          65.8227   91.6122   15.1978 C.2     1  UNL1        0.0998
@<TRIPOS>BOND
     1     2     1    1
     2     2     3    1
     3     3     4    1
     4     4     5   am
     5     5     6    2
     6     5    12    1
     7    12    13   ar
     8    13    14   ar
     9    14    15   ar
    10    15    16   ar
    11    16    17   ar
    12     4     7    1
    13     7     8    1
    14     8     9    1
    15     9    10   am
    16    10    11    2
    17    10    18    1
    18    18    19    2
    19    18    20    1
    20    20    21    2
    21    21    22    1
    22    22    23    2
    23    23    24    1
    24    24    25    1
    25    25    26    2
    26    26    27    1
    27    27    28    2
    28     9     2    1
    29    28    20    1
    30    17    12   ar
    31    28    23    1
