@<TRIPOS>MOLECULE
*****
 37 40 0 0 0
SMALL
GASTEIGER

@<TRIPOS>ATOM
      1 N          61.5328   93.0440    2.1844 N.pl3   1  UNL1       -0.2780
      2 C          60.0900   93.3358    2.4731 C.3     1  UNL1        0.0941
      3 C          59.3716   92.5754    3.5481 C.3     1  UNL1        0.0306
      4 C          60.0959   91.5232    4.3344 C.3     1  UNL1        0.0799
      5 C          61.5386   91.2314    4.0457 C.3     1  UNL1        0.0306
      6 C          62.2571   91.9918    2.9706 C.3     1  UNL1        0.0941
      7 C          64.2219   95.3231    0.3611 C.ar    1  UNL1        0.2217
      8 N          63.5035   94.5627    1.4361 N.ar    1  UNL1       -0.1808
      9 C          62.2512   93.8044    1.1093 C.ar    1  UNL1        0.2249
     10 N          61.7173   93.8066   -0.2924 N.ar    1  UNL1       -0.1807
     11 C          62.4357   94.5670   -1.3674 C.ar    1  UNL1        0.2250
     12 N          63.6880   95.3253   -1.0406 N.ar    1  UNL1       -0.1808
     13 N          61.9018   94.5692   -2.7692 N.pl3   1  UNL1       -0.2752
     14 C          60.4422   94.8112   -3.0155 C.3     1  UNL1        0.1109
     15 C          59.9083   94.8134   -4.4173 C.3     1  UNL1        0.0939
     16 N          60.8342   94.5736   -5.5728 N.3     1  UNL1       -0.2686
     17 C          60.3003   94.5758   -6.9746 C.3     1  UNL1        0.0897
     18 C          62.2939   94.3316   -5.3265 C.3     1  UNL1        0.0939
     19 C          62.8277   94.3294   -3.9247 C.3     1  UNL1        0.1109
     20 C          66.1874   96.8496   -0.3850 C.3     1  UNL1        0.1108
     21 N          65.4742   96.0813    0.6879 N.pl3   1  UNL1       -0.3012
     22 H          65.8281   96.0748    1.6066 H       1  UNL1        0.1497
     23 C          59.3775   90.7628    5.4094 C.2     1  UNL1        0.2223
     24 O          57.8862   90.8665    5.5325 O.2     1  UNL1       -0.2751
     25 N          60.1503   89.8987    6.3612 N.am    1  UNL1       -0.3004
     26 H          61.1292   89.8307    6.2804 H       1  UNL1        0.1497
     27 C          59.4319   89.1384    7.4362 C.3     1  UNL1        0.1163
     28 C          60.1261   88.8325    8.7303 C.ar    1  UNL1        0.0013
     29 C          60.4272   89.9371    9.6993 C.ar    1  UNL1       -0.0027
     30 C          61.1213   89.6312   10.9933 C.ar    1  UNL1       -0.0003
     31 C          61.5143   88.2207   11.3184 C.ar    1  UNL1       -0.0001
     32 C          61.2132   87.1159   10.3494 C.ar    1  UNL1        0.0036
     33 C          60.5191   87.4218    9.0553 C.ar    1  UNL1        0.0691
     34 C          60.2180   86.3171    8.0864 C.3     1  UNL1        0.4183
     35 F          59.9169   85.2124    7.1174 F       1  UNL1       -0.1659
     36 F          61.6861   86.1333    7.8397 F       1  UNL1       -0.1659
     37 F          58.7499   86.5009    8.3330 F       1  UNL1       -0.1659
@<TRIPOS>BOND
     1    20    21    1
     2    21     7    1
     3     7     8   ar
     4     8     9   ar
     5     9     1    1
     6     1     2    1
     7     2     3    1
     8     3     4    1
     9     4    23    1
    10    23    24    2
    11    23    25   am
    12    25    27    1
    13    27    28    1
    14    28    29   ar
    15    29    30   ar
    16    30    31   ar
    17    31    32   ar
    18    32    33   ar
    19    33    34    1
    20    34    35    1
    21    34    36    1
    22    34    37    1
    23     4     5    1
    24     5     6    1
    25     9    10   ar
    26    10    11   ar
    27    11    13    1
    28    13    14    1
    29    14    15    1
    30    15    16    1
    31    16    17    1
    32    16    18    1
    33    18    19    1
    34    11    12   ar
    35    12     7   ar
    36     6     1    1
    37    19    13    1
    38    33    28   ar
    39    21    22    1
    40    25    26    1
@<TRIPOS>MOLECULE
*****
 37 40 0 0 0
SMALL
GASTEIGER

@<TRIPOS>ATOM
      1 N          64.6702   90.0674   13.2211 N.pl3   1  UNL1       -0.2780
      2 C          63.7788   89.7144   12.0675 C.3     1  UNL1        0.0941
      3 C          63.1213   88.3673   12.0127 C.3     1  UNL1        0.0306
      4 C          63.3551   87.3733   13.1115 C.3     1  UNL1        0.0799
      5 C          64.2465   87.7264   14.2651 C.3     1  UNL1        0.0306
      6 C          64.9041   89.0735   14.3199 C.3     1  UNL1        0.0941
      7 C          66.5055   93.2898   14.6347 C.ar    1  UNL1        0.2217
      8 N          65.8480   91.9428   14.5799 N.ar    1  UNL1       -0.1808
      9 C          65.3278   91.4146   13.2759 C.ar    1  UNL1        0.2249
     10 N          65.4653   92.2334   12.0267 N.ar    1  UNL1       -0.1807
     11 C          66.1228   93.5804   12.0815 C.ar    1  UNL1        0.2250
     12 N          66.6430   94.1086   13.3855 N.ar    1  UNL1       -0.1808
     13 N          66.2603   94.3994   10.8322 N.pl3   1  UNL1       -0.2752
     14 C          65.5657   95.7244   10.7238 C.3     1  UNL1        0.1109
     15 C          65.7032   96.5433    9.4746 C.3     1  UNL1        0.0939
     16 N          66.5352   96.0371    8.3338 N.3     1  UNL1       -0.2686
     17 C          66.6727   96.8560    7.0846 C.3     1  UNL1        0.0897
     18 C          67.2298   94.7120    8.4422 C.3     1  UNL1        0.0939
     19 C          67.0923   93.8932    9.6914 C.3     1  UNL1        0.1109
     20 C          68.5026   93.8514   16.1988 C.3     1  UNL1        0.1108
     21 N          67.0257   93.8180   15.9387 N.pl3   1  UNL1       -0.3012
     22 H          66.3977   94.1427   16.6239 H       1  UNL1        0.1497
     23 C          62.6975   86.0263   13.0567 C.2     1  UNL1        0.2223
     24 O          61.4532   85.8317   12.2419 O.2     1  UNL1       -0.2751
     25 N          63.2842   84.8738   13.8167 N.am    1  UNL1       -0.3004
     26 H          64.1008   85.0015   14.3515 H       1  UNL1        0.1497
     27 C          62.6266   83.5267   13.7619 C.3     1  UNL1        0.1163
     28 C          62.8855   82.6124   12.6013 C.ar    1  UNL1        0.0013
     29 C          63.6406   83.1131   11.4059 C.ar    1  UNL1       -0.0027
     30 C          63.8996   82.1988   10.2454 C.ar    1  UNL1       -0.0003
     31 C          63.4033   80.7837   10.2802 C.ar    1  UNL1       -0.0001
     32 C          62.6482   80.2829   11.4756 C.ar    1  UNL1        0.0036
     33 C          62.3892   81.1972   12.6362 C.ar    1  UNL1        0.0691
     34 C          61.6341   80.6965   13.8316 C.3     1  UNL1        0.4183
     35 F          60.8790   80.1958   15.0270 F       1  UNL1       -0.1659
     36 F          60.4113   81.4302   13.3664 F       1  UNL1       -0.1659
     37 F          62.8569   79.9628   14.2967 F       1  UNL1       -0.1659
@<TRIPOS>BOND
     1    20    21    1
     2    21     7    1
     3     7     8   ar
     4     8     9   ar
     5     9     1    1
     6     1     2    1
     7     2     3    1
     8     3     4    1
     9     4    23    1
    10    23    24    2
    11    23    25   am
    12    25    27    1
    13    27    28    1
    14    28    29   ar
    15    29    30   ar
    16    30    31   ar
    17    31    32   ar
    18    32    33   ar
    19    33    34    1
    20    34    35    1
    21    34    36    1
    22    34    37    1
    23     4     5    1
    24     5     6    1
    25     9    10   ar
    26    10    11   ar
    27    11    13    1
    28    13    14    1
    29    14    15    1
    30    15    16    1
    31    16    17    1
    32    16    18    1
    33    18    19    1
    34    11    12   ar
    35    12     7   ar
    36     6     1    1
    37    19    13    1
    38    33    28   ar
    39    21    22    1
    40    25    26    1
@<TRIPOS>MOLECULE
*****
 37 40 0 0 0
SMALL
GASTEIGER

@<TRIPOS>ATOM
      1 N          64.4347   89.0728   14.3297 N.pl3   1  UNL1       -0.2780
      2 C          65.6865   89.6217   14.9476 C.3     1  UNL1        0.0941
      3 C          66.2233   90.9493   14.5012 C.3     1  UNL1        0.0306
      4 C          65.5084   91.7280   13.4370 C.3     1  UNL1        0.0799
      5 C          64.2567   91.1790   12.8191 C.3     1  UNL1        0.0306
      6 C          63.7198   89.8514   13.2655 C.3     1  UNL1        0.0941
      7 C          62.8671   86.2425   16.6280 C.ar    1  UNL1        0.2217
      8 N          63.4039   87.5700   16.1815 N.ar    1  UNL1       -0.1808
      9 C          63.8979   87.7451   14.7761 C.ar    1  UNL1        0.2249
     10 N          63.8551   86.5926   13.8171 N.ar    1  UNL1       -0.1807
     11 C          63.3183   85.2650   14.2635 C.ar    1  UNL1        0.2250
     12 N          62.8243   85.0899   15.6689 N.ar    1  UNL1       -0.1808
     13 N          63.2755   84.1124   13.3044 N.pl3   1  UNL1       -0.2752
     14 C          63.2105   82.7067   13.8237 C.3     1  UNL1        0.1109
     15 C          63.1677   81.5540   12.8646 C.3     1  UNL1        0.0939
     16 N          63.1899   81.8072   11.3863 N.3     1  UNL1       -0.2686
     17 C          63.1471   80.6547   10.4273 C.3     1  UNL1        0.0897
     18 C          63.2549   83.2130   10.8671 C.3     1  UNL1        0.0939
     19 C          63.2977   84.3656   11.8261 C.3     1  UNL1        0.1109
     20 C          62.6178   87.1396   19.0534 C.3     1  UNL1        0.1108
     21 N          62.3731   86.0674   18.0334 N.pl3   1  UNL1       -0.3012
     22 H          61.8882   85.2488   18.2864 H       1  UNL1        0.1497
     23 C          66.0452   93.0556   12.9906 C.2     1  UNL1        0.2223
     24 O          67.2092   93.6732   13.7073 O.2     1  UNL1       -0.2751
     25 N          65.4181   93.7656   11.8276 N.am    1  UNL1       -0.3004
     26 H          64.6541   93.3602   11.3572 H       1  UNL1        0.1497
     27 C          65.9549   95.0932   11.3812 C.3     1  UNL1        0.1163
     28 C          66.1155   95.3839    9.9185 C.ar    1  UNL1        0.0013
     29 C          65.4112   96.5578    9.3054 C.ar    1  UNL1       -0.0027
     30 C          65.5717   96.8485    7.8426 C.ar    1  UNL1       -0.0003
     31 C          66.4365   95.9653    6.9929 C.ar    1  UNL1       -0.0001
     32 C          67.1408   94.7913    7.6060 C.ar    1  UNL1        0.0036
     33 C          66.9803   94.5006    9.0687 C.ar    1  UNL1        0.0691
     34 C          67.6845   93.3267    9.6818 C.3     1  UNL1        0.4183
     35 F          68.3888   92.1527   10.2949 F       1  UNL1       -0.1659
     36 F          66.3888   92.5722    9.7257 F       1  UNL1       -0.1659
     37 F          68.9802   94.0811    9.6380 F       1  UNL1       -0.1659
@<TRIPOS>BOND
     1    20    21    1
     2    21     7    1
     3     7     8   ar
     4     8     9   ar
     5     9     1    1
     6     1     2    1
     7     2     3    1
     8     3     4    1
     9     4    23    1
    10    23    24    2
    11    23    25   am
    12    25    27    1
    13    27    28    1
    14    28    29   ar
    15    29    30   ar
    16    30    31   ar
    17    31    32   ar
    18    32    33   ar
    19    33    34    1
    20    34    35    1
    21    34    36    1
    22    34    37    1
    23     4     5    1
    24     5     6    1
    25     9    10   ar
    26    10    11   ar
    27    11    13    1
    28    13    14    1
    29    14    15    1
    30    15    16    1
    31    16    17    1
    32    16    18    1
    33    18    19    1
    34    11    12   ar
    35    12     7   ar
    36     6     1    1
    37    19    13    1
    38    33    28   ar
    39    21    22    1
    40    25    26    1
@<TRIPOS>MOLECULE
*****
 37 40 0 0 0
SMALL
GASTEIGER

@<TRIPOS>ATOM
      1 N          64.8187   90.1793   13.6377 N.pl3   1  UNL1       -0.2780
      2 C          63.9178   89.7619   12.5134 C.3     1  UNL1        0.0941
      3 C          63.2277   88.4309   12.5598 C.3     1  UNL1        0.0306
      4 C          63.4386   87.5171   13.7305 C.3     1  UNL1        0.0799
      5 C          64.3395   87.9345   14.8549 C.3     1  UNL1        0.0306
      6 C          65.0296   89.2656   14.8085 C.3     1  UNL1        0.0941
      7 C          66.8834   93.3743   14.7685 C.ar    1  UNL1        0.2217
      8 N          66.1934   92.0433   14.8149 N.ar    1  UNL1       -0.1808
      9 C          65.5087   91.5104   13.5913 C.ar    1  UNL1        0.2249
     10 N          65.5141   92.3084   12.3213 N.ar    1  UNL1       -0.1807
     11 C          66.2042   93.6395   12.2749 C.ar    1  UNL1        0.2250
     12 N          66.8888   94.1724   13.4985 N.ar    1  UNL1       -0.1808
     13 N          66.2096   94.4376   11.0048 N.pl3   1  UNL1       -0.2752
     14 C          65.4521   95.7300   10.9280 C.3     1  UNL1        0.1109
     15 C          65.4575   96.5282    9.6579 C.3     1  UNL1        0.0939
     16 N          66.2205   96.0339    8.4648 N.3     1  UNL1       -0.2686
     17 C          66.2259   96.8320    7.1947 C.3     1  UNL1        0.0897
     18 C          66.9780   94.7414    8.5417 C.3     1  UNL1        0.0939
     19 C          66.9725   93.9434    9.8117 C.3     1  UNL1        0.1109
     20 C          69.0657   93.9048   16.0747 C.3     1  UNL1        0.1108
     21 N          67.5680   93.9072   15.9922 N.pl3   1  UNL1       -0.3012
     22 H          67.0343   94.2586   16.7411 H       1  UNL1        0.1497
     23 C          62.7485   86.1861   13.7769 C.2     1  UNL1        0.2223
     24 O          62.0135   85.6801   12.5713 O.2     1  UNL1       -0.2751
     25 N          62.7936   85.3612   15.0289 N.am    1  UNL1       -0.3004
     26 H          63.2761   85.6934   15.8202 H       1  UNL1        0.1497
     27 C          62.1035   84.0302   15.0753 C.3     1  UNL1        0.1163
     28 C          62.5660   82.9142   14.1860 C.ar    1  UNL1        0.0013
     29 C          61.6019   81.8478   13.7579 C.ar    1  UNL1       -0.0027
     30 C          62.0643   80.7319   12.8686 C.ar    1  UNL1       -0.0003
     31 C          63.4908   80.6824   12.4074 C.ar    1  UNL1       -0.0001
     32 C          64.4549   81.7488   12.8355 C.ar    1  UNL1        0.0036
     33 C          63.9925   82.8648   13.7248 C.ar    1  UNL1        0.0691
     34 C          64.9565   83.9312   14.1529 C.3     1  UNL1        0.4183
     35 F          65.9206   84.9976   14.5810 F       1  UNL1       -0.1659
     36 F          64.9382   83.3867   15.5504 F       1  UNL1       -0.1659
     37 F          64.9748   84.4757   12.7553 F       1  UNL1       -0.1659
@<TRIPOS>BOND
     1    20    21    1
     2    21     7    1
     3     7     8   ar
     4     8     9   ar
     5     9     1    1
     6     1     2    1
     7     2     3    1
     8     3     4    1
     9     4    23    1
    10    23    24    2
    11    23    25   am
    12    25    27    1
    13    27    28    1
    14    28    29   ar
    15    29    30   ar
    16    30    31   ar
    17    31    32   ar
    18    32    33   ar
    19    33    34    1
    20    34    35    1
    21    34    36    1
    22    34    37    1
    23     4     5    1
    24     5     6    1
    25     9    10   ar
    26    10    11   ar
    27    11    13    1
    28    13    14    1
    29    14    15    1
    30    15    16    1
    31    16    17    1
    32    16    18    1
    33    18    19    1
    34    11    12   ar
    35    12     7   ar
    36     6     1    1
    37    19    13    1
    38    33    28   ar
    39    21    22    1
    40    25    26    1
@<TRIPOS>MOLECULE
*****
 37 40 0 0 0
SMALL
GASTEIGER

@<TRIPOS>ATOM
      1 N          59.6151   92.2702    3.6782 N.pl3   1  UNL1       -0.2780
      2 C          58.2907   91.9265    4.2929 C.3     1  UNL1        0.0941
      3 C          58.2182   90.9242    5.4064 C.3     1  UNL1        0.0306
      4 C          59.4702   90.2656    5.9054 C.3     1  UNL1        0.0799
      5 C          60.7946   90.6092    5.2907 C.3     1  UNL1        0.0306
      6 C          60.8670   91.6116    4.1770 C.3     1  UNL1        0.0941
      7 C          60.5182   95.5550    1.6422 C.ar    1  UNL1        0.2217
      8 N          60.4458   94.5526    2.7558 N.ar    1  UNL1       -0.1808
      9 C          59.6876   93.2726    2.5645 C.ar    1  UNL1        0.2249
     10 N          59.0018   92.9948    1.2597 N.ar    1  UNL1       -0.1807
     11 C          59.0743   93.9972    0.1462 C.ar    1  UNL1        0.2250
     12 N          59.8325   95.2772    0.3374 N.ar    1  UNL1       -0.1808
     13 N          58.3886   93.7195   -1.1588 N.pl3   1  UNL1       -0.2752
     14 C          59.1855   93.6661   -2.4284 C.3     1  UNL1        0.1109
     15 C          58.4997   93.3884   -3.7333 C.3     1  UNL1        0.0939
     16 N          57.0170   93.1641   -3.7685 N.3     1  UNL1       -0.2686
     17 C          56.3313   92.8864   -5.0733 C.3     1  UNL1        0.0897
     18 C          56.2201   93.2175   -2.4988 C.3     1  UNL1        0.0939
     19 C          56.9058   93.4952   -1.1939 C.3     1  UNL1        0.1109
     20 C          62.7670   96.8559    1.6670 C.3     1  UNL1        0.1108
     21 N          61.2765   96.8350    1.8335 N.pl3   1  UNL1       -0.3012
     22 H          60.7958   97.6615    2.0684 H       1  UNL1        0.1497
     23 C          59.3977   89.2633    7.0189 C.2     1  UNL1        0.2223
     24 O          59.5943   89.7044    8.4390 O.2     1  UNL1       -0.2751
     25 N          59.1286   87.8198    6.7124 N.am    1  UNL1       -0.3004
     26 H          58.9996   87.5302    5.7804 H       1  UNL1        0.1497
     27 C          59.0561   86.8175    7.8260 C.3     1  UNL1        0.1163
     28 C          60.2043   86.6721    8.7802 C.ar    1  UNL1        0.0013
     29 C          60.1775   87.3843   10.1000 C.ar    1  UNL1       -0.0027
     30 C          61.3258   87.2389   11.0541 C.ar    1  UNL1       -0.0003
     31 C          62.5008   86.3813   10.6884 C.ar    1  UNL1       -0.0001
     32 C          62.5277   85.6690    9.3685 C.ar    1  UNL1        0.0036
     33 C          61.3794   85.8144    8.4144 C.ar    1  UNL1        0.0691
     34 C          61.4062   85.1023    7.0945 C.3     1  UNL1        0.4183
     35 F          61.4330   84.3901    5.7747 F       1  UNL1       -0.1659
     36 F          59.9175   84.9304    7.1571 F       1  UNL1       -0.1659
     37 F          62.8950   85.2741    7.0320 F       1  UNL1       -0.1659
@<TRIPOS>BOND
     1    20    21    1
     2    21     7    1
     3     7     8   ar
     4     8     9   ar
     5     9     1    1
     6     1     2    1
     7     2     3    1
     8     3     4    1
     9     4    23    1
    10    23    24    2
    11    23    25   am
    12    25    27    1
    13    27    28    1
    14    28    29   ar
    15    29    30   ar
    16    30    31   ar
    17    31    32   ar
    18    32    33   ar
    19    33    34    1
    20    34    35    1
    21    34    36    1
    22    34    37    1
    23     4     5    1
    24     5     6    1
    25     9    10   ar
    26    10    11   ar
    27    11    13    1
    28    13    14    1
    29    14    15    1
    30    15    16    1
    31    16    17    1
    32    16    18    1
    33    18    19    1
    34    11    12   ar
    35    12     7   ar
    36     6     1    1
    37    19    13    1
    38    33    28   ar
    39    21    22    1
    40    25    26    1
@<TRIPOS>MOLECULE
*****
 37 40 0 0 0
SMALL
GASTEIGER

@<TRIPOS>ATOM
      1 N          59.6656   92.3588    3.3648 N.pl3   1  UNL1       -0.2780
      2 C          58.3843   92.0262    4.0703 C.3     1  UNL1        0.0941
      3 C          58.3977   91.1081    5.2564 C.3     1  UNL1        0.0306
      4 C          59.6923   90.5225    5.7370 C.3     1  UNL1        0.0799
      5 C          60.9736   90.8550    5.0315 C.3     1  UNL1        0.0306
      6 C          60.9602   91.7732    3.8453 C.3     1  UNL1        0.0941
      7 C          60.3979   95.4881    1.0364 C.ar    1  UNL1        0.2217
      8 N          60.4113   94.5699    2.2225 N.ar    1  UNL1       -0.1808
      9 C          59.6522   93.2769    2.1786 C.ar    1  UNL1        0.2249
     10 N          58.8797   92.9021    0.9487 N.ar    1  UNL1       -0.1807
     11 C          58.8663   93.8202   -0.2373 C.ar    1  UNL1        0.2250
     12 N          59.6254   95.1132   -0.1935 N.ar    1  UNL1       -0.1808
     13 N          58.0938   93.4454   -1.4673 N.pl3   1  UNL1       -0.2752
     14 C          57.0110   92.4105   -1.3866 C.3     1  UNL1        0.1109
     15 C          56.2385   92.0357   -2.6166 C.3     1  UNL1        0.0939
     16 N          56.5488   92.6958   -3.9273 N.3     1  UNL1       -0.2686
     17 C          55.7764   92.3210   -5.1572 C.3     1  UNL1        0.0897
     18 C          57.6317   93.7308   -4.0080 C.3     1  UNL1        0.0939
     19 C          58.4041   94.1055   -2.7780 C.3     1  UNL1        0.1109
     20 C          62.5458   96.8548    0.5185 C.3     1  UNL1        0.1108
     21 N          61.1570   96.7811    1.0803 N.pl3   1  UNL1       -0.3012
     22 H          60.7437   97.5813    1.4778 H       1  UNL1        0.1497
     23 C          59.7057   89.6044    6.9231 C.2     1  UNL1        0.2223
     24 O          59.9717   90.1533    8.2934 O.2     1  UNL1       -0.2751
     25 N          59.4531   88.1373    6.7389 N.am    1  UNL1       -0.3004
     26 H          59.2785   87.7770    5.8394 H       1  UNL1        0.1497
     27 C          59.4665   87.2192    7.9249 C.3     1  UNL1        0.1163
     28 C          60.6958   86.4199    8.2409 C.ar    1  UNL1        0.0013
     29 C          61.1573   85.3492    7.2972 C.ar    1  UNL1       -0.0027
     30 C          62.3866   84.5499    7.6132 C.ar    1  UNL1       -0.0003
     31 C          63.1545   84.8214    8.8728 C.ar    1  UNL1       -0.0001
     32 C          62.6931   85.8921    9.8165 C.ar    1  UNL1        0.0036
     33 C          61.4637   86.6914    9.5006 C.ar    1  UNL1        0.0691
     34 C          61.0022   87.7622   10.4442 C.3     1  UNL1        0.4183
     35 F          60.5408   88.8329   11.3878 F       1  UNL1       -0.1659
     36 F          60.1288   86.7660   11.1475 F       1  UNL1       -0.1659
     37 F          61.8757   88.7584    9.7409 F       1  UNL1       -0.1659
@<TRIPOS>BOND
     1    20    21    1
     2    21     7    1
     3     7     8   ar
     4     8     9   ar
     5     9     1    1
     6     1     2    1
     7     2     3    1
     8     3     4    1
     9     4    23    1
    10    23    24    2
    11    23    25   am
    12    25    27    1
    13    27    28    1
    14    28    29   ar
    15    29    30   ar
    16    30    31   ar
    17    31    32   ar
    18    32    33   ar
    19    33    34    1
    20    34    35    1
    21    34    36    1
    22    34    37    1
    23     4     5    1
    24     5     6    1
    25     9    10   ar
    26    10    11   ar
    27    11    13    1
    28    13    14    1
    29    14    15    1
    30    15    16    1
    31    16    17    1
    32    16    18    1
    33    18    19    1
    34    11    12   ar
    35    12     7   ar
    36     6     1    1
    37    19    13    1
    38    33    28   ar
    39    21    22    1
    40    25    26    1
@<TRIPOS>MOLECULE
*****
 37 40 0 0 0
SMALL
GASTEIGER

@<TRIPOS>ATOM
      1 N          60.4589   88.9745    8.0781 N.pl3   1  UNL1       -0.2780
      2 C          61.1086   89.7442    9.1895 C.3     1  UNL1        0.0941
      3 C          61.7382   89.0146   10.3390 C.3     1  UNL1        0.0306
      4 C          61.7180   87.5151   10.3769 C.3     1  UNL1        0.0799
      5 C          61.0683   86.7454    9.2655 C.3     1  UNL1        0.0306
      6 C          60.4387   87.4751    8.1160 C.3     1  UNL1        0.0941
      7 C          57.7075   90.4487    5.6272 C.ar    1  UNL1        0.2217
      8 N          58.3371   89.7190    6.7766 N.ar    1  UNL1       -0.1808
      9 C          59.8293   89.7042    6.9286 C.ar    1  UNL1        0.2249
     10 N          60.6919   90.4190    5.9312 N.ar    1  UNL1       -0.1807
     11 C          60.0623   91.1487    4.7818 C.ar    1  UNL1        0.2250
     12 N          58.5701   91.1635    4.6298 N.ar    1  UNL1       -0.1808
     13 N          60.9249   91.8636    3.7843 N.pl3   1  UNL1       -0.2752
     14 C          60.3487   92.9696    2.9508 C.3     1  UNL1        0.1109
     15 C          61.2113   93.6845    1.9533 C.3     1  UNL1        0.0939
     16 N          62.6501   93.2933    1.7894 N.3     1  UNL1       -0.2686
     17 C          63.5127   94.0082    0.7920 C.3     1  UNL1        0.0897
     18 C          63.2263   92.1873    2.6230 C.3     1  UNL1        0.0939
     19 C          62.3637   91.4725    3.6204 C.3     1  UNL1        0.1109
     20 C          55.5465   91.5932    4.7497 C.3     1  UNL1        0.1108
     21 N          56.2153   90.4635    5.4753 N.pl3   1  UNL1       -0.3012
     22 H          55.6748   89.7318    5.8517 H       1  UNL1        0.1497
     23 C          62.3476   86.7855   11.5264 C.2     1  UNL1        0.2223
     24 O          63.1826   87.5338   12.5227 O.2     1  UNL1       -0.2751
     25 N          62.1422   85.3075   11.6794 N.am    1  UNL1       -0.3004
     26 H          61.5942   84.8164   11.0254 H       1  UNL1        0.1497
     27 C          62.7718   84.5779   12.8288 C.3     1  UNL1        0.1163
     28 C          62.5766   83.0978   12.9750 C.ar    1  UNL1        0.0013
     29 C          61.7662   82.5572   14.1155 C.ar    1  UNL1       -0.0027
     30 C          61.5710   81.0772   14.2616 C.ar    1  UNL1       -0.0003
     31 C          62.1863   80.1377   13.2673 C.ar    1  UNL1       -0.0001
     32 C          62.9968   80.6783   12.1267 C.ar    1  UNL1        0.0036
     33 C          63.1920   82.1584   11.9805 C.ar    1  UNL1        0.0691
     34 C          64.0024   82.6990   10.8400 C.3     1  UNL1        0.4183
     35 F          64.8129   83.2396    9.6995 F       1  UNL1       -0.1659
     36 F          63.0143   82.1276    9.8669 F       1  UNL1       -0.1659
     37 F          64.9906   83.2704   11.8131 F       1  UNL1       -0.1659
@<TRIPOS>BOND
     1    20    21    1
     2    21     7    1
     3     7     8   ar
     4     8     9   ar
     5     9     1    1
     6     1     2    1
     7     2     3    1
     8     3     4    1
     9     4    23    1
    10    23    24    2
    11    23    25   am
    12    25    27    1
    13    27    28    1
    14    28    29   ar
    15    29    30   ar
    16    30    31   ar
    17    31    32   ar
    18    32    33   ar
    19    33    34    1
    20    34    35    1
    21    34    36    1
    22    34    37    1
    23     4     5    1
    24     5     6    1
    25     9    10   ar
    26    10    11   ar
    27    11    13    1
    28    13    14    1
    29    14    15    1
    30    15    16    1
    31    16    17    1
    32    16    18    1
    33    18    19    1
    34    11    12   ar
    35    12     7   ar
    36     6     1    1
    37    19    13    1
    38    33    28   ar
    39    21    22    1
    40    25    26    1
@<TRIPOS>MOLECULE
*****
 37 40 0 0 0
SMALL
GASTEIGER

@<TRIPOS>ATOM
      1 N          60.4525   89.0834    7.9385 N.pl3   1  UNL1       -0.2780
      2 C          60.4501   87.5838    7.9726 C.3     1  UNL1        0.0941
      3 C          61.1086   86.8584    9.1084 C.3     1  UNL1        0.0306
      4 C          61.7695   87.6326   10.2102 C.3     1  UNL1        0.0799
      5 C          61.7719   89.1322   10.1761 C.3     1  UNL1        0.0306
      6 C          61.1133   89.8576    9.0403 C.3     1  UNL1        0.0941
      7 C          57.6428   90.5018    5.5211 C.ar    1  UNL1        0.2217
      8 N          58.3014   89.7764    6.6569 N.ar    1  UNL1       -0.1808
      9 C          59.7939   89.8089    6.8027 C.ar    1  UNL1        0.2249
     10 N          60.6279   90.5667    5.8127 N.ar    1  UNL1       -0.1807
     11 C          59.9693   91.2920    4.6769 C.ar    1  UNL1        0.2250
     12 N          58.4768   91.2596    4.5311 N.ar    1  UNL1       -0.1808
     13 N          60.8033   92.0499    3.6868 N.pl3   1  UNL1       -0.2752
     14 C          62.2495   91.6985    3.4997 C.3     1  UNL1        0.1109
     15 C          63.0835   92.4564    2.5096 C.3     1  UNL1        0.0939
     16 N          62.4712   93.5656    1.7067 N.3     1  UNL1       -0.2686
     17 C          63.3051   94.3234    0.7166 C.3     1  UNL1        0.0897
     18 C          61.0250   93.9170    1.8938 C.3     1  UNL1        0.0939
     19 C          60.1911   93.1591    2.8838 C.3     1  UNL1        0.1109
     20 C          55.4335   91.6236    4.7397 C.3     1  UNL1        0.1108
     21 N          56.1503   90.4694    5.3753 N.pl3   1  UNL1       -0.3012
     22 H          55.6411   89.6905    5.6968 H       1  UNL1        0.1497
     23 C          62.4280   86.9071   11.3460 C.2     1  UNL1        0.2223
     24 O          62.9813   87.6778   12.5078 O.2     1  UNL1       -0.2751
     25 N          62.5333   85.4110   11.3199 N.am    1  UNL1       -0.3004
     26 H          62.1701   84.9052   10.5573 H       1  UNL1        0.1497
     27 C          63.1918   84.6856   12.4557 C.3     1  UNL1        0.1163
     28 C          62.9318   83.2229   12.6627 C.ar    1  UNL1        0.0013
     29 C          62.9185   82.2899   11.4882 C.ar    1  UNL1       -0.0027
     30 C          62.6586   80.8272   11.6952 C.ar    1  UNL1       -0.0003
     31 C          62.4119   80.2974   13.0766 C.ar    1  UNL1       -0.0001
     32 C          62.4252   81.2304   14.2512 C.ar    1  UNL1        0.0036
     33 C          62.6851   82.6931   14.0442 C.ar    1  UNL1        0.0691
     34 C          62.6984   83.6260   15.2187 C.3     1  UNL1        0.4183
     35 F          62.7117   84.5589   16.3931 F       1  UNL1       -0.1659
     36 F          61.2783   84.0117   14.9283 F       1  UNL1       -0.1659
     37 F          64.1186   83.2403   15.5090 F       1  UNL1       -0.1659
@<TRIPOS>BOND
     1    20    21    1
     2    21     7    1
     3     7     8   ar
     4     8     9   ar
     5     9     1    1
     6     1     2    1
     7     2     3    1
     8     3     4    1
     9     4    23    1
    10    23    24    2
    11    23    25   am
    12    25    27    1
    13    27    28    1
    14    28    29   ar
    15    29    30   ar
    16    30    31   ar
    17    31    32   ar
    18    32    33   ar
    19    33    34    1
    20    34    35    1
    21    34    36    1
    22    34    37    1
    23     4     5    1
    24     5     6    1
    25     9    10   ar
    26    10    11   ar
    27    11    13    1
    28    13    14    1
    29    14    15    1
    30    15    16    1
    31    16    17    1
    32    16    18    1
    33    18    19    1
    34    11    12   ar
    35    12     7   ar
    36     6     1    1
    37    19    13    1
    38    33    28   ar
    39    21    22    1
    40    25    26    1
@<TRIPOS>MOLECULE
*****
 37 40 0 0 0
SMALL
GASTEIGER

@<TRIPOS>ATOM
      1 N          59.9895   89.3436    7.2357 N.pl3   1  UNL1       -0.2780
      2 C          59.7239   87.8730    7.1066 C.3     1  UNL1        0.0941
      3 C          60.1005   86.9422    8.2208 C.3     1  UNL1        0.0306
      4 C          60.7428   87.4820    9.4643 C.3     1  UNL1        0.0799
      5 C          61.0084   88.9526    9.5934 C.3     1  UNL1        0.0306
      6 C          60.6317   89.8834    8.4791 C.3     1  UNL1        0.0941
      7 C          57.8024   91.6016    4.8132 C.ar    1  UNL1        0.2217
      8 N          58.1791   90.6708    5.9275 N.ar    1  UNL1       -0.1808
      9 C          59.6128   90.2745    6.1213 C.ar    1  UNL1        0.2249
     10 N          60.6697   90.8089    5.2009 N.ar    1  UNL1       -0.1807
     11 C          60.2929   91.7397    4.0866 C.ar    1  UNL1        0.2250
     12 N          58.8593   92.1360    3.8928 N.ar    1  UNL1       -0.1808
     13 N          61.3499   92.2742    3.1661 N.pl3   1  UNL1       -0.2752
     14 C          61.0243   93.3900    2.2180 C.3     1  UNL1        0.1109
     15 C          62.0813   93.9244    1.2974 C.3     1  UNL1        0.0939
     16 N          63.4637   93.3430    1.3251 N.3     1  UNL1       -0.2686
     17 C          64.5206   93.8775    0.4046 C.3     1  UNL1        0.0897
     18 C          63.7893   92.2272    2.2732 C.3     1  UNL1        0.0939
     19 C          62.7323   91.6927    3.1937 C.3     1  UNL1        0.1109
     20 C          55.2725   91.1556    5.2011 C.3     1  UNL1        0.1108
     21 N          56.3687   91.9980    4.6194 N.pl3   1  UNL1       -0.3012
     22 H          56.1473   92.8111    4.1104 H       1  UNL1        0.1497
     23 C          61.1195   86.5511   10.5786 C.2     1  UNL1        0.2223
     24 O          60.5000   86.7154   11.9347 O.2     1  UNL1       -0.2751
     25 N          62.1156   85.4560   10.3367 N.am    1  UNL1       -0.3004
     26 H          62.5222   85.3483    9.4465 H       1  UNL1        0.1497
     27 C          62.4923   84.5252   11.4509 C.3     1  UNL1        0.1163
     28 C          63.1883   85.0563   12.6689 C.ar    1  UNL1        0.0013
     29 C          63.4580   86.5262   12.7975 C.ar    1  UNL1       -0.0027
     30 C          64.1540   87.0573   14.0155 C.ar    1  UNL1       -0.0003
     31 C          64.5803   86.1184   15.1049 C.ar    1  UNL1       -0.0001
     32 C          64.3106   84.6484   14.9764 C.ar    1  UNL1        0.0036
     33 C          63.6146   84.1174   13.7584 C.ar    1  UNL1        0.0691
     34 C          63.3448   82.6475   13.6298 C.3     1  UNL1        0.4183
     35 F          63.0751   81.1776   13.5012 F       1  UNL1       -0.1659
     36 F          64.6279   82.4784   12.8715 F       1  UNL1       -0.1659
     37 F          62.0617   82.8166   14.3881 F       1  UNL1       -0.1659
@<TRIPOS>BOND
     1    20    21    1
     2    21     7    1
     3     7     8   ar
     4     8     9   ar
     5     9     1    1
     6     1     2    1
     7     2     3    1
     8     3     4    1
     9     4    23    1
    10    23    24    2
    11    23    25   am
    12    25    27    1
    13    27    28    1
    14    28    29   ar
    15    29    30   ar
    16    30    31   ar
    17    31    32   ar
    18    32    33   ar
    19    33    34    1
    20    34    35    1
    21    34    36    1
    22    34    37    1
    23     4     5    1
    24     5     6    1
    25     9    10   ar
    26    10    11   ar
    27    11    13    1
    28    13    14    1
    29    14    15    1
    30    15    16    1
    31    16    17    1
    32    16    18    1
    33    18    19    1
    34    11    12   ar
    35    12     7   ar
    36     6     1    1
    37    19    13    1
    38    33    28   ar
    39    21    22    1
    40    25    26    1
