@<TRIPOS>MOLECULE
*****
 29 32 0 0 0
SMALL
GASTEIGER

@<TRIPOS>ATOM
      1 C          63.3274   83.8500   13.1188 C.ar    1  UNL1        0.2172
      2 N          64.0810   83.3261   11.9324 N.ar    1  UNL1       -0.2126
      3 C          63.7834   83.8562   10.5611 C.ar    1  UNL1        0.0994
      4 C          62.7321   84.9101   10.3763 C.ar    1  UNL1        0.0207
      5 C          61.9785   85.4340   11.5627 C.ar    1  UNL1        0.0994
      6 N          62.2762   84.9039   12.9339 N.ar    1  UNL1       -0.2126
      7 N          63.6250   83.3200   14.4901 N.pl3   1  UNL1       -0.2990
      8 H          63.2990   82.4296   14.7551 H       1  UNL1        0.1500
      9 C          64.4193   84.1464   15.4576 C.3     1  UNL1        0.1180
     10 C          63.3941   88.4831   16.0834 C.ar    1  UNL1        0.2250
     11 C          64.2940   88.0807   14.9528 C.ar    1  UNL1        0.0574
     12 C          64.6357   86.6352   14.7442 C.ar    1  UNL1        0.0037
     13 C          64.0776   85.5919   15.6663 C.ar    1  UNL1        0.0168
     14 C          63.1777   85.9943   16.7969 C.ar    1  UNL1        0.0994
     15 N          62.8360   87.4399   17.0055 N.ar    1  UNL1       -0.2104
     16 C          63.9526   90.9982   15.7484 C.3     1  UNL1        0.2542
     17 O          63.0523   89.9286   16.2920 O.3     1  UNL1       -0.4561
     18 C          62.4345   85.4402    9.0049 C.3     1  UNL1        0.0575
     19 C          61.4350   86.5446    8.8283 C.ar    1  UNL1        0.0044
     20 C          60.2000   86.4886    7.9788 C.ar    1  UNL1        0.0966
     21 N          59.4967   87.8083    8.0958 N.ar    1  UNL1       -0.2273
     22 C          60.2971   88.6800    9.0176 C.ar    1  UNL1        0.1402
     23 N          60.0898   90.0840    9.5031 N.ar    1  UNL1       -0.3377
     24 C          61.0805   90.7070   10.4414 C.ar    1  UNL1        0.0691
     25 C          62.2784   89.9259   10.8942 C.ar    1  UNL1       -0.0047
     26 C          63.2691   90.5490   11.8325 C.3     1  UNL1        0.0326
     27 C          62.4857   88.5219   10.4086 C.ar    1  UNL1       -0.0001
     28 C          61.4950   87.8990    9.4703 C.ar    1  UNL1        0.0315
     29 H          59.3036   90.5966    9.2060 H       1  UNL1        0.1674
@<TRIPOS>BOND
     1    16    17    1
     2    17    10    1
     3    10    11   ar
     4    11    12   ar
     5    12    13   ar
     6    13     9    1
     7     9     7    1
     8     7     1    1
     9     1     2   ar
    10     2     3   ar
    11     3     4   ar
    12     4    18    1
    13    18    19    1
    14    19    20   ar
    15    20    21   ar
    16    21    22   ar
    17    22    23   ar
    18    23    24   ar
    19    24    25   ar
    20    25    26    1
    21    25    27   ar
    22    27    28   ar
    23     4     5   ar
    24     5     6   ar
    25    13    14   ar
    26    14    15   ar
    27    15    10   ar
    28     6     1   ar
    29    28    19   ar
    30    28    22    1
    31     7     8    1
    32    23    29    1
@<TRIPOS>MOLECULE
*****
 29 32 0 0 0
SMALL
GASTEIGER

@<TRIPOS>ATOM
      1 C          63.9872   85.6189   15.7456 C.ar    1  UNL1        0.2172
      2 N          63.1535   86.2400   16.8269 N.ar    1  UNL1       -0.2126
      3 C          62.9823   87.7292   16.8797 C.ar    1  UNL1        0.0994
      4 C          63.6446   88.5974   15.8513 C.ar    1  UNL1        0.0207
      5 C          64.4782   87.9762   14.7700 C.ar    1  UNL1        0.0994
      6 N          64.6495   86.4870   14.7171 N.ar    1  UNL1       -0.2126
      7 N          64.1585   84.1297   15.6927 N.pl3   1  UNL1       -0.2990
      8 H          64.8332   83.6914   16.2600 H       1  UNL1        0.1500
      9 C          63.3019   83.3082   14.7754 C.3     1  UNL1        0.1180
     10 C          63.4780   83.9803   10.3295 C.ar    1  UNL1        0.2250
     11 C          64.3568   82.9453   10.9669 C.ar    1  UNL1        0.0574
     12 C          64.2981   82.7213   12.4489 C.ar    1  UNL1        0.0037
     13 C          63.3605   83.5323   13.2935 C.ar    1  UNL1        0.0168
     14 C          62.4817   84.5673   12.6560 C.ar    1  UNL1        0.0994
     15 N          62.5404   84.7913   11.1740 N.ar    1  UNL1       -0.2104
     16 C          62.8510   85.3927    8.2409 C.3     1  UNL1        0.2542
     17 O          63.5366   84.2044    8.8475 O.3     1  UNL1       -0.4561
     18 C          63.4732   90.0867   15.9042 C.3     1  UNL1        0.0575
     19 C          64.2802   90.9671   14.9966 C.ar    1  UNL1        0.0044
     20 C          65.4164   91.8546   15.4106 C.ar    1  UNL1        0.0966
     21 N          65.9309   92.5506   14.1855 N.ar    1  UNL1       -0.2273
     22 C          65.1127   92.0933   13.0144 C.ar    1  UNL1        0.1402
     23 N          65.1649   92.4416   11.5564 N.ar    1  UNL1       -0.3377
     24 C          64.1968   91.8113   10.5996 C.ar    1  UNL1        0.0691
     25 C          63.1766   90.8326   11.1009 C.ar    1  UNL1       -0.0047
     26 C          62.2085   90.2022   10.1441 C.3     1  UNL1        0.0326
     27 C          63.1244   90.4843   12.5590 C.ar    1  UNL1       -0.0001
     28 C          64.0925   91.1147   13.5157 C.ar    1  UNL1        0.0315
     29 H          65.8345   93.0840   11.2274 H       1  UNL1        0.1674
@<TRIPOS>BOND
     1    16    17    1
     2    17    10    1
     3    10    11   ar
     4    11    12   ar
     5    12    13   ar
     6    13     9    1
     7     9     7    1
     8     7     1    1
     9     1     2   ar
    10     2     3   ar
    11     3     4   ar
    12     4    18    1
    13    18    19    1
    14    19    20   ar
    15    20    21   ar
    16    21    22   ar
    17    22    23   ar
    18    23    24   ar
    19    24    25   ar
    20    25    26    1
    21    25    27   ar
    22    27    28   ar
    23     4     5   ar
    24     5     6   ar
    25    13    14   ar
    26    14    15   ar
    27    15    10   ar
    28     6     1   ar
    29    28    19   ar
    30    28    22    1
    31     7     8    1
    32    23    29    1
@<TRIPOS>MOLECULE
*****
 29 32 0 0 0
SMALL
GASTEIGER

@<TRIPOS>ATOM
      1 C          63.2290   87.0573   16.2712 C.ar    1  UNL1        0.2172
      2 N          62.2777   85.9563   16.6359 N.ar    1  UNL1       -0.2126
      3 C          62.2774   84.6760   15.8543 C.ar    1  UNL1        0.0994
      4 C          63.2283   84.4966   14.7082 C.ar    1  UNL1        0.0207
      5 C          64.1796   85.5976   14.3436 C.ar    1  UNL1        0.0994
      6 N          64.1799   86.8779   15.1251 N.ar    1  UNL1       -0.2126
      7 N          63.2294   88.3376   17.0527 N.pl3   1  UNL1       -0.2990
      8 H          63.4605   88.3301   18.0097 H       1  UNL1        0.1500
      9 C          62.8775   89.6294   16.3763 C.3     1  UNL1        0.1180
     10 C          66.1307   92.4884   15.1547 C.ar    1  UNL1        0.2250
     11 C          65.8288   91.2889   14.3061 C.ar    1  UNL1        0.0574
     12 C          64.7444   90.3359   14.7134 C.ar    1  UNL1        0.0037
     13 C          63.9619   90.5824   15.9691 C.ar    1  UNL1        0.0168
     14 C          64.2638   91.7819   16.8177 C.ar    1  UNL1        0.0994
     15 N          65.3483   92.7349   16.4105 N.ar    1  UNL1       -0.2104
     16 C          68.3538   93.7254   15.6819 C.3     1  UNL1        0.2542
     17 O          67.2151   93.4414   14.7476 O.3     1  UNL1       -0.4561
     18 C          63.2279   83.2162   13.9267 C.3     1  UNL1        0.0575
     19 C          63.5933   83.2255   12.4719 C.ar    1  UNL1        0.0044
     20 C          64.5644   82.2999   11.8008 C.ar    1  UNL1        0.0966
     21 N          64.6230   82.6643   10.3470 N.ar    1  UNL1       -0.2273
     22 C          63.6881   83.8151   10.1195 C.ar    1  UNL1        0.1402
     23 N          63.3341   84.5919    8.8861 N.ar    1  UNL1       -0.3377
     24 C          62.3437   85.7156    8.9661 C.ar    1  UNL1        0.0691
     25 C          61.7073   86.0624   10.2794 C.ar    1  UNL1       -0.0047
     26 C          60.7169   87.1862   10.3593 C.3     1  UNL1        0.0326
     27 C          62.0613   85.2856   11.5127 C.ar    1  UNL1       -0.0001
     28 C          63.0517   84.1619   11.4328 C.ar    1  UNL1        0.0315
     29 H          63.7518   84.3643    8.0242 H       1  UNL1        0.1674
@<TRIPOS>BOND
     1    16    17    1
     2    17    10    1
     3    10    11   ar
     4    11    12   ar
     5    12    13   ar
     6    13     9    1
     7     9     7    1
     8     7     1    1
     9     1     2   ar
    10     2     3   ar
    11     3     4   ar
    12     4    18    1
    13    18    19    1
    14    19    20   ar
    15    20    21   ar
    16    21    22   ar
    17    22    23   ar
    18    23    24   ar
    19    24    25   ar
    20    25    26    1
    21    25    27   ar
    22    27    28   ar
    23     4     5   ar
    24     5     6   ar
    25    13    14   ar
    26    14    15   ar
    27    15    10   ar
    28     6     1   ar
    29    28    19   ar
    30    28    22    1
    31     7     8    1
    32    23    29    1
@<TRIPOS>MOLECULE
*****
 29 32 0 0 0
SMALL
GASTEIGER

@<TRIPOS>ATOM
      1 C          63.8231   85.9442   15.7737 C.ar    1  UNL1        0.2172
      2 N          64.4195   86.7397   14.6505 N.ar    1  UNL1       -0.2126
      3 C          64.3389   88.2374   14.6669 C.ar    1  UNL1        0.0994
      4 C          63.6619   88.9396   15.8064 C.ar    1  UNL1        0.0207
      5 C          63.0654   88.1442   16.9296 C.ar    1  UNL1        0.0994
      6 N          63.1460   86.6465   16.9132 N.ar    1  UNL1       -0.2126
      7 N          63.9037   84.4465   15.7573 N.pl3   1  UNL1       -0.2990
      8 H          64.7165   83.9937   16.0791 H       1  UNL1        0.1500
      9 C          62.7458   83.6385   15.2507 C.3     1  UNL1        0.1180
     10 C          63.0636   81.4708   11.3201 C.ar    1  UNL1        0.2250
     11 C          63.4899   82.9053   11.4221 C.ar    1  UNL1        0.0574
     12 C          63.3840   83.6278   12.7323 C.ar    1  UNL1        0.0037
     13 C          62.8517   82.9159   13.9406 C.ar    1  UNL1        0.0168
     14 C          62.4255   81.4813   13.8386 C.ar    1  UNL1        0.0994
     15 N          62.5314   80.7588   12.5284 N.ar    1  UNL1       -0.2104
     16 C          62.8404   79.2868    9.9307 C.3     1  UNL1        0.2542
     17 O          63.1695   80.7481   10.0100 O.3     1  UNL1       -0.4561
     18 C          63.5813   90.4375   15.8228 C.3     1  UNL1        0.0575
     19 C          64.5544   91.2497   15.0208 C.ar    1  UNL1        0.0044
     20 C          65.7453   91.9846   15.5610 C.ar    1  UNL1        0.0966
     21 N          66.4344   92.6587   14.4118 N.ar    1  UNL1       -0.2273
     22 C          65.6694   92.3405   13.1613 C.ar    1  UNL1        0.1402
     23 N          65.8807   92.7312   11.7287 N.ar    1  UNL1       -0.3377
     24 C          64.9301   92.2511   10.6723 C.ar    1  UNL1        0.0691
     25 C          63.7682   91.3803   11.0487 C.ar    1  UNL1       -0.0047
     26 C          62.8176   90.9002    9.9923 C.3     1  UNL1        0.0326
     27 C          63.5569   90.9896   12.4814 C.ar    1  UNL1       -0.0001
     28 C          64.5075   91.4697   13.5377 C.ar    1  UNL1        0.0315
     29 H          66.6433   93.3028   11.4816 H       1  UNL1        0.1674
@<TRIPOS>BOND
     1    16    17    1
     2    17    10    1
     3    10    11   ar
     4    11    12   ar
     5    12    13   ar
     6    13     9    1
     7     9     7    1
     8     7     1    1
     9     1     2   ar
    10     2     3   ar
    11     3     4   ar
    12     4    18    1
    13    18    19    1
    14    19    20   ar
    15    20    21   ar
    16    21    22   ar
    17    22    23   ar
    18    23    24   ar
    19    24    25   ar
    20    25    26    1
    21    25    27   ar
    22    27    28   ar
    23     4     5   ar
    24     5     6   ar
    25    13    14   ar
    26    14    15   ar
    27    15    10   ar
    28     6     1   ar
    29    28    19   ar
    30    28    22    1
    31     7     8    1
    32    23    29    1
@<TRIPOS>MOLECULE
*****
 29 32 0 0 0
SMALL
GASTEIGER

@<TRIPOS>ATOM
      1 C          64.0413   84.9358   15.6562 C.ar    1  UNL1        0.2172
      2 N          63.1566   85.5658   16.6908 N.ar    1  UNL1       -0.2126
      3 C          62.9961   87.0566   16.7330 C.ar    1  UNL1        0.0994
      4 C          63.7203   87.9173   15.7407 C.ar    1  UNL1        0.0207
      5 C          64.6049   87.2873   14.7061 C.ar    1  UNL1        0.0994
      6 N          64.7654   85.7965   14.6638 N.ar    1  UNL1       -0.2126
      7 N          64.2018   83.4450   15.6139 N.pl3   1  UNL1       -0.2990
      8 H          64.8006   82.9961   16.2535 H       1  UNL1        0.1500
      9 C          63.4501   82.6382   14.5970 C.3     1  UNL1        0.1180
     10 C          63.5949   83.7971   10.2513 C.ar    1  UNL1        0.2250
     11 C          62.6197   84.4664   11.1739 C.ar    1  UNL1        0.0574
     12 C          62.5715   84.0800   12.6225 C.ar    1  UNL1        0.0037
     13 C          63.4984   83.0244   13.1484 C.ar    1  UNL1        0.0168
     14 C          64.4735   82.3552   12.2258 C.ar    1  UNL1        0.0994
     15 N          64.5217   82.7415   10.7773 N.ar    1  UNL1       -0.2104
     16 C          62.8965   85.3930    8.3237 C.3     1  UNL1        0.2542
     17 O          63.6432   84.1834    8.8027 O.3     1  UNL1       -0.4561
     18 C          63.5597   89.4082   15.7830 C.3     1  UNL1        0.0575
     19 C          63.7694   90.2207   14.5396 C.ar    1  UNL1        0.0044
     20 C          62.9760   90.1120   13.2712 C.ar    1  UNL1        0.0966
     21 N          63.5255   91.1086   12.2941 N.ar    1  UNL1       -0.2273
     22 C          64.6585   91.8332   12.9586 C.ar    1  UNL1        0.1402
     23 N          65.5723   92.9218   12.4792 N.ar    1  UNL1       -0.3377
     24 C          66.6369   93.4615   13.3877 C.ar    1  UNL1        0.0691
     25 C          66.7876   92.9127   14.7755 C.ar    1  UNL1       -0.0047
     26 C          67.8522   93.4525   15.6840 C.3     1  UNL1        0.0326
     27 C          65.8737   91.8241   15.2549 C.ar    1  UNL1       -0.0001
     28 C          64.8092   91.2844   14.3464 C.ar    1  UNL1        0.0315
     29 H          65.4734   93.2820   11.5683 H       1  UNL1        0.1674
@<TRIPOS>BOND
     1    16    17    1
     2    17    10    1
     3    10    11   ar
     4    11    12   ar
     5    12    13   ar
     6    13     9    1
     7     9     7    1
     8     7     1    1
     9     1     2   ar
    10     2     3   ar
    11     3     4   ar
    12     4    18    1
    13    18    19    1
    14    19    20   ar
    15    20    21   ar
    16    21    22   ar
    17    22    23   ar
    18    23    24   ar
    19    24    25   ar
    20    25    26    1
    21    25    27   ar
    22    27    28   ar
    23     4     5   ar
    24     5     6   ar
    25    13    14   ar
    26    14    15   ar
    27    15    10   ar
    28     6     1   ar
    29    28    19   ar
    30    28    22    1
    31     7     8    1
    32    23    29    1
@<TRIPOS>MOLECULE
*****
 29 32 0 0 0
SMALL
GASTEIGER

@<TRIPOS>ATOM
      1 C          63.6580   90.6893   12.4633 C.ar    1  UNL1        0.2172
      2 N          62.7093   90.9106   11.3227 N.ar    1  UNL1       -0.2126
      3 C          61.9757   89.7488   10.7212 C.ar    1  UNL1        0.0994
      4 C          62.1907   88.3656   11.2603 C.ar    1  UNL1        0.0207
      5 C          63.1394   88.1442   12.4009 C.ar    1  UNL1        0.0994
      6 N          63.8730   89.3061   13.0024 N.ar    1  UNL1       -0.2126
      7 N          64.3918   91.8511   13.0648 N.pl3   1  UNL1       -0.2990
      8 H          63.9028   92.5202   13.5963 H       1  UNL1        0.1500
      9 C          65.8704   91.9934   12.8567 C.3     1  UNL1        0.1180
     10 C          67.4371   94.7116    9.6308 C.ar    1  UNL1        0.2250
     11 C          67.5831   93.2249    9.4952 C.ar    1  UNL1        0.0574
     12 C          67.0609   92.3189   10.5705 C.ar    1  UNL1        0.0037
     13 C          66.3926   92.8995   11.7814 C.ar    1  UNL1        0.0168
     14 C          66.2466   94.3862   11.9170 C.ar    1  UNL1        0.0994
     15 N          66.7689   95.2923   10.8417 N.ar    1  UNL1       -0.2104
     16 C          67.1979   96.8549    8.1820 C.3     1  UNL1        0.2542
     17 O          67.9594   95.6177    8.5555 O.3     1  UNL1       -0.4561
     18 C          61.4569   87.2037   10.6587 C.3     1  UNL1        0.0575
     19 C          62.2225   86.0399   10.1025 C.ar    1  UNL1        0.0044
     20 C          62.6003   85.8392    8.6648 C.ar    1  UNL1        0.0966
     21 N          63.3561   84.5477    8.5601 N.ar    1  UNL1       -0.2273
     22 C          63.4453   83.9503    9.9331 C.ar    1  UNL1        0.1402
     23 N          64.0740   82.6857   10.4384 N.ar    1  UNL1       -0.3377
     24 C          64.0022   82.3433   11.8970 C.ar    1  UNL1        0.0691
     25 C          63.3016   83.2655   12.8503 C.ar    1  UNL1       -0.0047
     26 C          63.2298   82.9230   14.3090 C.3     1  UNL1        0.0326
     27 C          62.6729   84.5301   12.3450 C.ar    1  UNL1       -0.0001
     28 C          62.7448   84.8725   10.8864 C.ar    1  UNL1        0.0315
     29 H          64.5338   82.0804    9.8128 H       1  UNL1        0.1674
@<TRIPOS>BOND
     1    16    17    1
     2    17    10    1
     3    10    11   ar
     4    11    12   ar
     5    12    13   ar
     6    13     9    1
     7     9     7    1
     8     7     1    1
     9     1     2   ar
    10     2     3   ar
    11     3     4   ar
    12     4    18    1
    13    18    19    1
    14    19    20   ar
    15    20    21   ar
    16    21    22   ar
    17    22    23   ar
    18    23    24   ar
    19    24    25   ar
    20    25    26    1
    21    25    27   ar
    22    27    28   ar
    23     4     5   ar
    24     5     6   ar
    25    13    14   ar
    26    14    15   ar
    27    15    10   ar
    28     6     1   ar
    29    28    19   ar
    30    28    22    1
    31     7     8    1
    32    23    29    1
@<TRIPOS>MOLECULE
*****
 29 32 0 0 0
SMALL
GASTEIGER

@<TRIPOS>ATOM
      1 C          63.6938   86.0498   15.7057 C.ar    1  UNL1        0.2172
      2 N          64.4975   86.7537   14.6529 N.ar    1  UNL1       -0.2126
      3 C          64.5618   88.2522   14.6353 C.ar    1  UNL1        0.0994
      4 C          63.8223   89.0468   15.6706 C.ar    1  UNL1        0.0207
      5 C          63.0185   88.3429   16.7234 C.ar    1  UNL1        0.0994
      6 N          62.9543   86.8444   16.7410 N.ar    1  UNL1       -0.2126
      7 N          63.6295   84.5513   15.7233 N.pl3   1  UNL1       -0.2990
      8 H          64.4005   84.0293   16.0429 H       1  UNL1        0.1500
      9 C          62.3904   83.8481   15.2538 C.3     1  UNL1        0.1180
     10 C          62.7019   80.4831   12.2825 C.ar    1  UNL1        0.2250
     11 C          61.8152   80.3429   13.4842 C.ar    1  UNL1        0.0574
     12 C          61.7114   81.4646   14.4746 C.ar    1  UNL1        0.0037
     13 C          62.4943   82.7265   14.2634 C.ar    1  UNL1        0.0168
     14 C          63.3810   82.8667   13.0617 C.ar    1  UNL1        0.0994
     15 N          63.4848   81.7450   12.0713 N.ar    1  UNL1       -0.2104
     16 C          62.8626   79.6607    9.8233 C.3     1  UNL1        0.2542
     17 O          62.8057   79.3614   11.2920 O.3     1  UNL1       -0.4561
     18 C          63.8866   90.5454   15.6530 C.3     1  UNL1        0.0575
     19 C          64.5627   91.2538   14.5168 C.ar    1  UNL1        0.0044
     20 C          65.8118   92.0790   14.6106 C.ar    1  UNL1        0.0966
     21 N          66.1294   92.5966   13.2390 N.ar    1  UNL1       -0.2273
     22 C          65.0766   92.0912   12.2975 C.ar    1  UNL1        0.1402
     23 N          64.8747   92.2795   10.8232 N.ar    1  UNL1       -0.3377
     24 C          63.7044   91.6380   10.1386 C.ar    1  UNL1        0.0691
     25 C          62.7360   90.8081   10.9283 C.ar    1  UNL1       -0.0047
     26 C          61.5657   90.1665   10.2437 C.3     1  UNL1        0.0326
     27 C          62.9380   90.6198   12.4027 C.ar    1  UNL1       -0.0001
     28 C          64.1083   91.2614   13.0873 C.ar    1  UNL1        0.0315
     29 H          65.5102   92.8242   10.3049 H       1  UNL1        0.1674
@<TRIPOS>BOND
     1    16    17    1
     2    17    10    1
     3    10    11   ar
     4    11    12   ar
     5    12    13   ar
     6    13     9    1
     7     9     7    1
     8     7     1    1
     9     1     2   ar
    10     2     3   ar
    11     3     4   ar
    12     4    18    1
    13    18    19    1
    14    19    20   ar
    15    20    21   ar
    16    21    22   ar
    17    22    23   ar
    18    23    24   ar
    19    24    25   ar
    20    25    26    1
    21    25    27   ar
    22    27    28   ar
    23     4     5   ar
    24     5     6   ar
    25    13    14   ar
    26    14    15   ar
    27    15    10   ar
    28     6     1   ar
    29    28    19   ar
    30    28    22    1
    31     7     8    1
    32    23    29    1
@<TRIPOS>MOLECULE
*****
 29 32 0 0 0
SMALL
GASTEIGER

@<TRIPOS>ATOM
      1 C          62.5290   89.9477   10.8635 C.ar    1  UNL1        0.2172
      2 N          61.7385   89.5179    9.6634 N.ar    1  UNL1       -0.2126
      3 C          61.4409   88.0645    9.4426 C.ar    1  UNL1        0.0994
      4 C          61.9338   87.0408   10.4219 C.ar    1  UNL1        0.0207
      5 C          62.7243   87.4705   11.6221 C.ar    1  UNL1        0.0994
      6 N          63.0219   88.9240   11.8429 N.ar    1  UNL1       -0.2126
      7 N          62.8266   91.4012   11.0844 N.pl3   1  UNL1       -0.2990
      8 H          62.1057   92.0162   11.3514 H       1  UNL1        0.1500
      9 C          64.2226   91.9177   10.8986 C.3     1  UNL1        0.1180
     10 C          66.7109   93.0166   14.4833 C.ar    1  UNL1        0.2250
     11 C          65.8535   91.7862   14.5141 C.ar    1  UNL1        0.0574
     12 C          65.0241   91.4199   13.3192 C.ar    1  UNL1        0.0037
     13 C          65.0520   92.2840   12.0934 C.ar    1  UNL1        0.0168
     14 C          65.9094   93.5145   12.0626 C.ar    1  UNL1        0.0994
     15 N          66.7388   93.8808   13.2575 N.ar    1  UNL1       -0.2104
     16 C          68.7411   92.5595   16.0386 C.3     1  UNL1        0.2542
     17 O          67.5403   93.3830   15.6782 O.3     1  UNL1       -0.4561
     18 C          61.6362   85.5872   10.2010 C.3     1  UNL1        0.0575
     19 C          62.6885   84.5553   10.4800 C.ar    1  UNL1        0.0044
     20 C          63.5804   83.9081    9.4624 C.ar    1  UNL1        0.0966
     21 N          64.4768   82.9423   10.1791 N.ar    1  UNL1       -0.2273
     22 C          64.1389   82.9926   11.6397 C.ar    1  UNL1        0.1402
     23 N          64.6948   82.2595   12.8243 N.ar    1  UNL1       -0.3377
     24 C          64.1455   82.5232   14.1949 C.ar    1  UNL1        0.0691
     25 C          63.0402   83.5201   14.3809 C.ar    1  UNL1       -0.0047
     26 C          62.4908   83.7838   15.7516 C.3     1  UNL1        0.0326
     27 C          62.4843   84.2533   13.1963 C.ar    1  UNL1       -0.0001
     28 C          63.0336   83.9895   11.8256 C.ar    1  UNL1        0.0315
     29 H          65.4202   81.6052   12.7022 H       1  UNL1        0.1674
@<TRIPOS>BOND
     1    16    17    1
     2    17    10    1
     3    10    11   ar
     4    11    12   ar
     5    12    13   ar
     6    13     9    1
     7     9     7    1
     8     7     1    1
     9     1     2   ar
    10     2     3   ar
    11     3     4   ar
    12     4    18    1
    13    18    19    1
    14    19    20   ar
    15    20    21   ar
    16    21    22   ar
    17    22    23   ar
    18    23    24   ar
    19    24    25   ar
    20    25    26    1
    21    25    27   ar
    22    27    28   ar
    23     4     5   ar
    24     5     6   ar
    25    13    14   ar
    26    14    15   ar
    27    15    10   ar
    28     6     1   ar
    29    28    19   ar
    30    28    22    1
    31     7     8    1
    32    23    29    1
@<TRIPOS>MOLECULE
*****
 29 32 0 0 0
SMALL
GASTEIGER

@<TRIPOS>ATOM
      1 C          63.3627   82.5152   11.6525 C.ar    1  UNL1        0.2172
      2 N          64.1711   82.5126   10.3889 N.ar    1  UNL1       -0.2126
      3 C          64.0043   83.6188    9.3897 C.ar    1  UNL1        0.0994
      4 C          63.0292   84.7275    9.6540 C.ar    1  UNL1        0.0207
      5 C          62.2209   84.7301   10.9175 C.ar    1  UNL1        0.0994
      6 N          62.3876   83.6239   11.9167 N.ar    1  UNL1       -0.2126
      7 N          63.5294   81.4090   12.6517 N.pl3   1  UNL1       -0.2990
      8 H          63.3019   80.4837   12.4042 H       1  UNL1        0.1500
      9 C          64.0427   81.7126   14.0281 C.3     1  UNL1        0.1180
     10 C          63.6249   85.8609   15.7210 C.ar    1  UNL1        0.2250
     11 C          62.5724   84.8286   15.9975 C.ar    1  UNL1        0.0574
     12 C          62.7117   83.4458   15.4332 C.ar    1  UNL1        0.0037
     13 C          63.9035   83.0954   14.5924 C.ar    1  UNL1        0.0168
     14 C          64.9559   84.1277   14.3160 C.ar    1  UNL1        0.0994
     15 N          64.8167   85.5105   14.8803 N.ar    1  UNL1       -0.2104
     16 C          62.7879   87.4519   17.5968 C.3     1  UNL1        0.2542
     17 O          63.4857   87.2437   16.2853 O.3     1  UNL1       -0.4561
     18 C          62.8625   85.8338    8.6547 C.3     1  UNL1        0.0575
     19 C          61.6866   86.7601    8.7505 C.ar    1  UNL1        0.0044
     20 C          60.3465   86.5530    8.1092 C.ar    1  UNL1        0.0966
     21 N          59.4760   87.7210    8.4668 N.ar    1  UNL1       -0.2273
     22 C          60.2781   88.6501    9.3291 C.ar    1  UNL1        0.1402
     23 N          59.9409   89.9601    9.9772 N.ar    1  UNL1       -0.3377
     24 C          60.9700   90.6762   10.8008 C.ar    1  UNL1        0.0691
     25 C          62.3362   90.0823   10.9761 C.ar    1  UNL1       -0.0047
     26 C          63.3653   90.7984   11.7997 C.3     1  UNL1        0.0326
     27 C          62.6734   88.7723   10.3279 C.ar    1  UNL1       -0.0001
     28 C          61.6443   88.0562    9.5044 C.ar    1  UNL1        0.0315
     29 H          59.0443   90.3499    9.8622 H       1  UNL1        0.1674
@<TRIPOS>BOND
     1    16    17    1
     2    17    10    1
     3    10    11   ar
     4    11    12   ar
     5    12    13   ar
     6    13     9    1
     7     9     7    1
     8     7     1    1
     9     1     2   ar
    10     2     3   ar
    11     3     4   ar
    12     4    18    1
    13    18    19    1
    14    19    20   ar
    15    20    21   ar
    16    21    22   ar
    17    22    23   ar
    18    23    24   ar
    19    24    25   ar
    20    25    26    1
    21    25    27   ar
    22    27    28   ar
    23     4     5   ar
    24     5     6   ar
    25    13    14   ar
    26    14    15   ar
    27    15    10   ar
    28     6     1   ar
    29    28    19   ar
    30    28    22    1
    31     7     8    1
    32    23    29    1
