@<TRIPOS>MOLECULE
*****
 44 47 0 0 0
SMALL
GASTEIGER

@<TRIPOS>ATOM
      1 N          61.4868   86.4239    9.4443 N.pl3   1  UNL1       -0.3043
      2 C          61.1949   86.0964   10.8787 C.3     1  UNL1        0.1123
      3 C          62.0719   85.1323   11.6213 C.3     1  UNL1        0.1149
      4 N          63.2407   84.4957   10.9295 N.am    1  UNL1       -0.2747
      5 C          64.1176   83.5316   11.6721 C.2     1  UNL1        0.2442
      6 O          65.2864   82.8950   10.9802 O.2     1  UNL1       -0.2731
      7 C          63.5325   84.8232    9.4951 C.3     1  UNL1        0.1149
      8 C          62.6555   85.7873    8.7525 C.3     1  UNL1        0.1123
      9 C          60.6069   88.8406    9.0760 C.ar    1  UNL1        0.0088
     10 C          59.7299   89.8047    8.3335 C.ar    1  UNL1       -0.0015
     11 C          58.8558   89.3162    7.2166 C.ar    1  UNL1       -0.0002
     12 C          58.8587   87.8637    6.8423 C.ar    1  UNL1        0.0012
     13 C          59.7357   86.8996    7.5849 C.ar    1  UNL1        0.0143
     14 C          60.6098   87.3881    8.7017 C.ar    1  UNL1        0.0454
     15 C          61.4810   89.3290   10.1929 C.3     1  UNL1        0.0952
     16 N          62.7897   89.9941    9.8850 N.am    1  UNL1       -0.3021
     17 C          63.4862   90.8030   10.9389 C.2     1  UNL1        0.2241
     18 O          64.7950   91.4681   10.6310 O.2     1  UNL1       -0.2750
     19 H          63.1916   89.8998    8.9912 H       1  UNL1        0.1497
     20 C          62.8740   90.9467   12.3007 C.3     1  UNL1        0.1018
     21 C          63.7537   91.0828   13.5080 C.3     1  UNL1        0.0748
     22 N          64.9008   92.0491   13.4950 N.3     1  UNL1       -0.3207
     23 H          65.5944   91.7444   12.8119 H       1  UNL1        0.1189
     24 H          65.3275   92.0829   14.4209 H       1  UNL1        0.1189
     25 C          61.0464   89.1524   11.6176 C.3     1  UNL1        0.0242
     26 C          58.8373   88.7329   12.9192 C.3     1  UNL1        0.0001
     27 C          59.6854   89.6124   12.0491 C.3     1  UNL1        0.0020
     28 C          59.1725   90.9520   11.6104 C.3     1  UNL1        0.0001
     29 C          63.8258   83.2041   13.1065 C.3     1  UNL1        0.1564
     30 N          62.7118   82.2596   13.4485 N.am    1  UNL1       -0.2727
     31 C          61.6833   82.4610   14.5216 C.3     1  UNL1        0.0943
     32 C          60.7665   81.2738   14.5138 C.3     1  UNL1        0.0311
     33 C          61.2285   80.3386   13.4358 C.3     1  UNL1        0.0870
     34 C          62.4307   80.9479   12.7774 C.2     1  UNL1        0.2260
     35 O          63.2143   80.3503   11.6465 O.2     1  UNL1       -0.2749
     36 C          64.6479   83.8210   14.1989 C.3     1  UNL1        0.0564
     37 C          64.2563   85.1504   14.7727 C.ar    1  UNL1       -0.0094
     38 C          64.6787   86.4165   14.0882 C.ar    1  UNL1       -0.0025
     39 C          64.2871   87.7459   14.6620 C.ar    1  UNL1        0.0111
     40 C          63.4730   87.8093   15.9202 C.ar    1  UNL1        0.0585
     41 CL         63.0814   89.1387   16.4940 Cl      1  UNL1       -0.0822
     42 C          63.0505   86.5432   16.6047 C.ar    1  UNL1        0.0225
     43 C          63.4421   85.2137   16.0310 C.ar    1  UNL1        0.0546
     44 CL         63.0197   83.9477   16.7154 Cl      1  UNL1       -0.0825
@<TRIPOS>BOND
     1    26    27    1
     2    27    28    1
     3    27    25    1
     4    15    25    1
     5    15    16    1
     6    16    17   am
     7    17    18    2
     8    17    20    1
     9    20    21    1
    10    21    22    1
    11    15     9    1
    12     9    10   ar
    13    10    11   ar
    14    11    12   ar
    15    12    13   ar
    16    13    14   ar
    17    14     1    1
    18     1     2    1
    19     2     3    1
    20     3     4    1
    21     4     5   am
    22     5     6    2
    23     5    29    1
    24    29    36    1
    25    36    37    1
    26    37    38   ar
    27    38    39   ar
    28    39    40   ar
    29    40    41    1
    30    40    42   ar
    31    42    43   ar
    32    43    44    1
    33    29    30    1
    34    30    31    1
    35    31    32    1
    36    32    33    1
    37    33    34    1
    38    34    35    2
    39     4     7    1
    40     7     8    1
    41    14     9   ar
    42     8     1    1
    43    43    37   ar
    44    34    30   am
    45    16    19    1
    46    22    23    1
    47    22    24    1
@<TRIPOS>MOLECULE
*****
 44 47 0 0 0
SMALL
GASTEIGER

@<TRIPOS>ATOM
      1 N          61.5536   89.1717   10.5131 N.pl3   1  UNL1       -0.3043
      2 C          62.7133   90.0256   10.0936 C.3     1  UNL1        0.1123
      3 C          63.4973   90.7841   11.1232 C.3     1  UNL1        0.1149
      4 N          63.1215   90.6888   12.5723 N.am    1  UNL1       -0.2747
      5 C          63.9054   91.4474   13.6018 C.2     1  UNL1        0.2442
      6 O          63.5296   91.3521   15.0508 O.2     1  UNL1       -0.2731
      7 C          61.9618   89.8350   12.9917 C.3     1  UNL1        0.1149
      8 C          61.1778   89.0764   11.9621 C.3     1  UNL1        0.1123
      9 C          60.9075   86.9228    9.3839 C.ar    1  UNL1        0.0088
     10 C          60.1236   86.1643    8.3543 C.ar    1  UNL1       -0.0015
     11 C          59.2018   86.8961    7.4243 C.ar    1  UNL1       -0.0002
     12 C          59.0640   88.3864    7.5239 C.ar    1  UNL1        0.0012
     13 C          59.8480   89.1449    8.5535 C.ar    1  UNL1        0.0143
     14 C          60.7697   88.4131    9.4835 C.ar    1  UNL1        0.0454
     15 C          61.8292   86.1910   10.3139 C.3     1  UNL1        0.0952
     16 N          61.4182   85.9416   11.7347 N.am    1  UNL1       -0.3021
     17 C          62.2792   85.0981   12.6275 C.2     1  UNL1        0.2241
     18 O          61.8681   84.8488   14.0484 O.2     1  UNL1       -0.2750
     19 H          60.5833   86.3316   12.0813 H       1  UNL1        0.1497
     20 C          63.5512   84.5040   12.0995 C.3     1  UNL1        0.1018
     21 C          64.2834   83.4674   12.8992 C.3     1  UNL1        0.0748
     22 N          65.0552   82.3879   12.2000 N.3     1  UNL1       -0.3207
     23 H          64.4101   81.7851   11.6892 H       1  UNL1        0.1189
     24 H          65.5650   81.8341   12.8884 H       1  UNL1        0.1189
     25 C          63.1620   85.7086    9.8230 C.3     1  UNL1        0.0242
     26 C          63.6325   83.2170    9.2565 C.3     1  UNL1        0.0001
     27 C          63.2338   84.5956    8.8199 C.3     1  UNL1        0.0020
     28 C          62.9069   84.8612    7.3803 C.3     1  UNL1        0.0001
     29 C          65.0651   92.3013   13.1823 C.3     1  UNL1        0.1564
     30 N          66.2541   92.4475   14.0851 N.am    1  UNL1       -0.2727
     31 C          66.9258   91.3419   14.8444 C.3     1  UNL1        0.0943
     32 C          68.0669   91.9360   15.6157 C.3     1  UNL1        0.0311
     33 C          68.1005   93.4088   15.3329 C.3     1  UNL1        0.0870
     34 C          66.9801   93.7249   14.3870 C.2     1  UNL1        0.2260
     35 O          66.6446   95.0803   13.8392 O.2     1  UNL1       -0.2749
     36 C          65.0359   93.0090   11.8601 C.3     1  UNL1        0.0564
     37 C          66.2008   92.8942   10.9221 C.ar    1  UNL1       -0.0094
     38 C          67.0230   91.6399   10.8973 C.ar    1  UNL1       -0.0025
     39 C          68.1879   91.5252    9.9593 C.ar    1  UNL1        0.0111
     40 C          68.5306   92.6647    9.0461 C.ar    1  UNL1        0.0585
     41 CL         69.6955   92.5500    8.1081 Cl      1  UNL1       -0.0822
     42 C          67.7084   93.9191    9.0709 C.ar    1  UNL1        0.0225
     43 C          66.5435   94.0339   10.0089 C.ar    1  UNL1        0.0546
     44 CL         65.7213   95.2881   10.0337 Cl      1  UNL1       -0.0825
@<TRIPOS>BOND
     1    26    27    1
     2    27    28    1
     3    27    25    1
     4    15    25    1
     5    15    16    1
     6    16    17   am
     7    17    18    2
     8    17    20    1
     9    20    21    1
    10    21    22    1
    11    15     9    1
    12     9    10   ar
    13    10    11   ar
    14    11    12   ar
    15    12    13   ar
    16    13    14   ar
    17    14     1    1
    18     1     2    1
    19     2     3    1
    20     3     4    1
    21     4     5   am
    22     5     6    2
    23     5    29    1
    24    29    36    1
    25    36    37    1
    26    37    38   ar
    27    38    39   ar
    28    39    40   ar
    29    40    41    1
    30    40    42   ar
    31    42    43   ar
    32    43    44    1
    33    29    30    1
    34    30    31    1
    35    31    32    1
    36    32    33    1
    37    33    34    1
    38    34    35    2
    39     4     7    1
    40     7     8    1
    41    14     9   ar
    42     8     1    1
    43    43    37   ar
    44    34    30   am
    45    16    19    1
    46    22    23    1
    47    22    24    1
@<TRIPOS>MOLECULE
*****
 44 47 0 0 0
SMALL
GASTEIGER

@<TRIPOS>ATOM
      1 N          63.4949   85.8339   13.8017 N.pl3   1  UNL1       -0.3043
      2 C          64.1311   86.9342   13.0050 C.3     1  UNL1        0.1123
      3 C          64.3052   88.2950   13.6114 C.3     1  UNL1        0.1149
      4 N          63.8431   88.5557   15.0144 N.am    1  UNL1       -0.2747
      5 C          64.0172   89.9165   15.6208 C.2     1  UNL1        0.2442
      6 O          63.5551   90.1772   17.0238 O.2     1  UNL1       -0.2731
      7 C          63.2068   87.4554   15.8111 C.3     1  UNL1        0.1149
      8 C          63.0327   86.0945   15.2047 C.3     1  UNL1        0.1123
      9 C          62.6014   84.3209   11.8878 C.ar    1  UNL1        0.0088
     10 C          62.4274   82.9601   11.2815 C.ar    1  UNL1       -0.0015
     11 C          62.9726   81.7513   11.9825 C.ar    1  UNL1       -0.0002
     12 C          63.6919   81.9033   13.2900 C.ar    1  UNL1        0.0012
     13 C          63.8660   83.2642   13.8963 C.ar    1  UNL1        0.0143
     14 C          63.3208   84.4730   13.1952 C.ar    1  UNL1        0.0454
     15 C          62.0562   85.5297   11.1868 C.3     1  UNL1        0.0952
     16 N          60.9080   86.2885   11.7833 N.am    1  UNL1       -0.3021
     17 C          60.7043   87.7340   11.4384 C.2     1  UNL1        0.2241
     18 O          59.5560   88.4928   12.0351 O.2     1  UNL1       -0.2750
     19 H          60.2882   85.8378   12.4013 H       1  UNL1        0.1497
     20 C          61.6486   88.4208   10.4969 C.3     1  UNL1        0.1018
     21 C          61.1171   89.3529    9.4488 C.3     1  UNL1        0.0748
     22 N          60.1187   90.4088    9.8207 N.3     1  UNL1       -0.3207
     23 H          59.2477   89.9654   10.1124 H       1  UNL1        0.1189
     24 H          59.9418   91.0084    9.0148 H       1  UNL1        0.1189
     25 C          62.6591   85.9798    9.8891 C.3     1  UNL1        0.0242
     26 C          60.6145   85.8963    8.2882 C.3     1  UNL1        0.0001
     27 C          62.0437   85.5546    8.5888 C.3     1  UNL1        0.0020
     28 C          62.8577   84.7877    7.5891 C.3     1  UNL1        0.0001
     29 C          64.6534   91.0168   14.8241 C.3     1  UNL1        0.1564
     30 N          65.9463   91.6236   15.2826 N.am    1  UNL1       -0.2727
     31 C          67.2962   91.3882   14.6723 C.3     1  UNL1        0.0943
     32 C          68.3005   92.1915   15.4443 C.3     1  UNL1        0.0311
     33 C          67.5712   92.9234   16.5318 C.3     1  UNL1        0.0870
     34 C          66.1163   92.5724   16.4318 C.2     1  UNL1        0.2260
     35 O          65.0233   93.0810   17.3244 O.2     1  UNL1       -0.2749
     36 C          63.9968   91.5102   13.5690 C.3     1  UNL1        0.0564
     37 C          64.7872   92.3035   12.5710 C.ar    1  UNL1       -0.0094
     38 C          65.6927   93.4050   13.0365 C.ar    1  UNL1       -0.0025
     39 C          66.4831   94.1983   12.0385 C.ar    1  UNL1        0.0111
     40 C          66.3680   93.8900   10.5750 C.ar    1  UNL1        0.0585
     41 CL         67.1584   94.6833    9.5771 Cl      1  UNL1       -0.0822
     42 C          65.4625   92.7884   10.1095 C.ar    1  UNL1        0.0225
     43 C          64.6721   91.9951   11.1075 C.ar    1  UNL1        0.0546
     44 CL         63.7666   90.8936   10.6421 Cl      1  UNL1       -0.0825
@<TRIPOS>BOND
     1    26    27    1
     2    27    28    1
     3    27    25    1
     4    15    25    1
     5    15    16    1
     6    16    17   am
     7    17    18    2
     8    17    20    1
     9    20    21    1
    10    21    22    1
    11    15     9    1
    12     9    10   ar
    13    10    11   ar
    14    11    12   ar
    15    12    13   ar
    16    13    14   ar
    17    14     1    1
    18     1     2    1
    19     2     3    1
    20     3     4    1
    21     4     5   am
    22     5     6    2
    23     5    29    1
    24    29    36    1
    25    36    37    1
    26    37    38   ar
    27    38    39   ar
    28    39    40   ar
    29    40    41    1
    30    40    42   ar
    31    42    43   ar
    32    43    44    1
    33    29    30    1
    34    30    31    1
    35    31    32    1
    36    32    33    1
    37    33    34    1
    38    34    35    2
    39     4     7    1
    40     7     8    1
    41    14     9   ar
    42     8     1    1
    43    43    37   ar
    44    34    30   am
    45    16    19    1
    46    22    23    1
    47    22    24    1
@<TRIPOS>MOLECULE
*****
 44 47 0 0 0
SMALL
GASTEIGER

@<TRIPOS>ATOM
      1 N          56.6261   94.6332   -1.6339 N.pl3   1  UNL1       -0.3043
      2 C          57.7739   95.4830   -1.1753 C.3     1  UNL1        0.1123
      3 C          59.0286   94.8375   -0.6662 C.3     1  UNL1        0.1149
      4 N          59.1354   93.3421   -0.6157 N.am    1  UNL1       -0.2747
      5 C          60.3900   92.6966   -0.1066 C.2     1  UNL1        0.2442
      6 O          60.4968   91.2013   -0.0561 O.2     1  UNL1       -0.2731
      7 C          57.9876   92.4923   -1.0743 C.3     1  UNL1        0.1149
      8 C          56.7329   93.1379   -1.5834 C.3     1  UNL1        0.1123
      9 C          55.2282   95.5917   -3.6029 C.ar    1  UNL1        0.0088
     10 C          53.9736   96.2373   -4.1120 C.ar    1  UNL1       -0.0015
     11 C          52.8622   96.5698   -3.1611 C.ar    1  UNL1       -0.0002
     12 C          53.0054   96.2568   -1.7012 C.ar    1  UNL1        0.0012
     13 C          54.2601   95.6113   -1.1921 C.ar    1  UNL1        0.0143
     14 C          55.3715   95.2787   -2.1430 C.ar    1  UNL1        0.0454
     15 C          56.3396   95.2592   -4.5538 C.3     1  UNL1        0.0952
     16 N          56.0481   94.4921   -5.8094 N.am    1  UNL1       -0.3021
     17 C          55.9904   92.9936   -5.7765 C.2     1  UNL1        0.2241
     18 O          55.6988   92.2265   -7.0322 O.2     1  UNL1       -0.2750
     19 H          55.8946   94.9721   -6.6551 H       1  UNL1        0.1497
     20 C          56.2242   92.2621   -4.4880 C.3     1  UNL1        0.1018
     21 C          55.6310   90.9001   -4.2804 C.3     1  UNL1        0.0748
     22 N          56.0013   90.0976   -3.0685 N.3     1  UNL1       -0.3207
     23 H          56.9893   89.8482   -3.1147 H       1  UNL1        0.1189
     24 H          55.4374   89.2482   -3.0378 H       1  UNL1        0.1189
     25 C          57.7426   95.6937   -4.2492 C.3     1  UNL1        0.0242
     26 C          59.4295   95.4196   -6.2060 C.3     1  UNL1        0.0001
     27 C          58.9024   94.9761   -4.8736 C.3     1  UNL1        0.0020
     28 C          59.5351   93.8149   -4.1656 C.3     1  UNL1        0.0001
     29 C          61.5378   93.5464    0.3521 C.3     1  UNL1        0.1564
     30 N          62.5164   94.0880   -0.6475 N.am    1  UNL1       -0.2727
     31 C          62.7641   93.5436   -2.0231 C.3     1  UNL1        0.0943
     32 C          63.8199   94.3881   -2.6727 C.3     1  UNL1        0.0311
     33 C          64.2247   95.4545   -1.6985 C.3     1  UNL1        0.0870
     34 C          63.4192   95.2690   -0.4469 C.2     1  UNL1        0.2260
     35 O          63.5019   96.1158    0.7884 O.2     1  UNL1       -0.2749
     36 C          61.7071   93.8547    1.8102 C.3     1  UNL1        0.0564
     37 C          61.1564   92.9175    2.8438 C.ar    1  UNL1       -0.0094
     38 C          59.7586   93.1029    3.3556 C.ar    1  UNL1       -0.0025
     39 C          59.2079   92.1657    4.3892 C.ar    1  UNL1        0.0111
     40 C          60.0549   91.0431    4.9110 C.ar    1  UNL1        0.0585
     41 CL         59.5042   90.1059    5.9446 Cl      1  UNL1       -0.0822
     42 C          61.4527   90.8577    4.3993 C.ar    1  UNL1        0.0225
     43 C          62.0035   91.7949    3.3657 C.ar    1  UNL1        0.0546
     44 CL         63.4012   91.6096    2.8539 Cl      1  UNL1       -0.0825
@<TRIPOS>BOND
     1    26    27    1
     2    27    28    1
     3    27    25    1
     4    15    25    1
     5    15    16    1
     6    16    17   am
     7    17    18    2
     8    17    20    1
     9    20    21    1
    10    21    22    1
    11    15     9    1
    12     9    10   ar
    13    10    11   ar
    14    11    12   ar
    15    12    13   ar
    16    13    14   ar
    17    14     1    1
    18     1     2    1
    19     2     3    1
    20     3     4    1
    21     4     5   am
    22     5     6    2
    23     5    29    1
    24    29    36    1
    25    36    37    1
    26    37    38   ar
    27    38    39   ar
    28    39    40   ar
    29    40    41    1
    30    40    42   ar
    31    42    43   ar
    32    43    44    1
    33    29    30    1
    34    30    31    1
    35    31    32    1
    36    32    33    1
    37    33    34    1
    38    34    35    2
    39     4     7    1
    40     7     8    1
    41    14     9   ar
    42     8     1    1
    43    43    37   ar
    44    34    30   am
    45    16    19    1
    46    22    23    1
    47    22    24    1
@<TRIPOS>MOLECULE
*****
 44 47 0 0 0
SMALL
GASTEIGER

@<TRIPOS>ATOM
      1 N          61.7262   88.9326   10.6316 N.pl3   1  UNL1       -0.3043
      2 C          62.9068   89.7567   10.2111 C.3     1  UNL1        0.1123
      3 C          63.6262   90.6048   11.2176 C.3     1  UNL1        0.1149
      4 N          63.1650   90.6288   12.6448 N.am    1  UNL1       -0.2747
      5 C          63.8844   91.4768   13.6513 C.2     1  UNL1        0.2442
      6 O          63.4231   91.5008   15.0784 O.2     1  UNL1       -0.2731
      7 C          61.9843   89.8046   13.0653 C.3     1  UNL1        0.1149
      8 C          61.2649   88.9565   12.0587 C.3     1  UNL1        0.1123
      9 C          61.2221   86.6002    9.6040 C.ar    1  UNL1        0.0088
     10 C          60.5027   85.7521    8.5974 C.ar    1  UNL1       -0.0015
     11 C          59.5680   86.3884    7.6118 C.ar    1  UNL1       -0.0002
     12 C          59.3527   87.8727    7.6327 C.ar    1  UNL1        0.0012
     13 C          60.0721   88.7207    8.6393 C.ar    1  UNL1        0.0143
     14 C          61.0068   88.0844    9.6249 C.ar    1  UNL1        0.0454
     15 C          62.1568   85.9639   10.5896 C.3     1  UNL1        0.0952
     16 N          63.3696   85.2264   10.1048 N.am    1  UNL1       -0.3021
     17 C          63.4847   83.7468   10.3230 C.2     1  UNL1        0.2241
     18 O          64.6976   83.0093    9.8381 O.2     1  UNL1       -0.2750
     19 H          64.0901   85.7134    9.6434 H       1  UNL1        0.1497
     20 C          62.3869   83.0047   11.0260 C.3     1  UNL1        0.1018
     21 C          62.7150   81.8278   11.8962 C.3     1  UNL1        0.0748
     22 N          63.0512   80.5053   11.2736 N.3     1  UNL1       -0.3207
     23 H          62.2307   80.1379   10.7918 H       1  UNL1        0.1189
     24 H          63.3400   79.8508   12.0006 H       1  UNL1        0.1189
     25 C          61.8787   86.0652   12.0601 C.3     1  UNL1        0.0242
     26 C          63.9425   87.1147   13.2389 C.3     1  UNL1        0.0001
     27 C          63.0048   85.9600   13.0454 C.3     1  UNL1        0.0020
     28 C          63.1933   84.7000   13.8373 C.3     1  UNL1        0.0001
     29 C          65.0650   92.3010   13.2308 C.3     1  UNL1        0.1564
     30 N          66.2517   92.4295   14.1392 N.am    1  UNL1       -0.2727
     31 C          66.9138   91.3113   14.8884 C.3     1  UNL1        0.0943
     32 C          68.0560   91.8895   15.6701 C.3     1  UNL1        0.0311
     33 C          68.0997   93.3652   15.4040 C.3     1  UNL1        0.0870
     34 C          66.9847   93.6988   14.4579 C.2     1  UNL1        0.2260
     35 O          66.6596   95.0624   13.9241 O.2     1  UNL1       -0.2749
     36 C          65.0590   92.9965   11.9019 C.3     1  UNL1        0.0564
     37 C          66.2412   92.8754   10.9866 C.ar    1  UNL1       -0.0094
     38 C          67.1194   91.6612   11.0524 C.ar    1  UNL1       -0.0025
     39 C          68.3016   91.5401   10.1371 C.ar    1  UNL1        0.0111
     40 C          68.6056   92.6332    9.1560 C.ar    1  UNL1        0.0585
     41 CL         69.7877   92.5121    8.2407 Cl      1  UNL1       -0.0822
     42 C          67.7273   93.8475    9.0900 C.ar    1  UNL1        0.0225
     43 C          66.5451   93.9686   10.0053 C.ar    1  UNL1        0.0546
     44 CL         65.6669   95.1828    9.9395 Cl      1  UNL1       -0.0825
@<TRIPOS>BOND
     1    26    27    1
     2    27    28    1
     3    27    25    1
     4    15    25    1
     5    15    16    1
     6    16    17   am
     7    17    18    2
     8    17    20    1
     9    20    21    1
    10    21    22    1
    11    15     9    1
    12     9    10   ar
    13    10    11   ar
    14    11    12   ar
    15    12    13   ar
    16    13    14   ar
    17    14     1    1
    18     1     2    1
    19     2     3    1
    20     3     4    1
    21     4     5   am
    22     5     6    2
    23     5    29    1
    24    29    36    1
    25    36    37    1
    26    37    38   ar
    27    38    39   ar
    28    39    40   ar
    29    40    41    1
    30    40    42   ar
    31    42    43   ar
    32    43    44    1
    33    29    30    1
    34    30    31    1
    35    31    32    1
    36    32    33    1
    37    33    34    1
    38    34    35    2
    39     4     7    1
    40     7     8    1
    41    14     9   ar
    42     8     1    1
    43    43    37   ar
    44    34    30   am
    45    16    19    1
    46    22    23    1
    47    22    24    1
@<TRIPOS>MOLECULE
*****
 44 47 0 0 0
SMALL
GASTEIGER

@<TRIPOS>ATOM
      1 N          57.2274   94.5707   -1.5951 N.pl3   1  UNL1       -0.3043
      2 C          58.3699   95.4118   -1.1078 C.3     1  UNL1        0.1123
      3 C          59.6269   94.7572   -0.6164 C.3     1  UNL1        0.1149
      4 N          59.7414   93.2616   -0.6123 N.am    1  UNL1       -0.2747
      5 C          60.9984   92.6070   -0.1209 C.2     1  UNL1        0.2442
      6 O          61.1129   91.1114   -0.1167 O.2     1  UNL1       -0.2731
      7 C          58.5989   92.4205   -1.0995 C.3     1  UNL1        0.1149
      8 C          57.3419   93.0751   -1.5909 C.3     1  UNL1        0.1123
      9 C          55.6267   95.1884   -3.5461 C.ar    1  UNL1        0.0088
     10 C          54.3697   95.8430   -4.0374 C.ar    1  UNL1       -0.0015
     11 C          53.4564   96.5346   -3.0691 C.ar    1  UNL1       -0.0002
     12 C          53.8001   96.5716   -1.6095 C.ar    1  UNL1        0.0012
     13 C          55.0570   95.9169   -1.1182 C.ar    1  UNL1        0.0143
     14 C          55.9704   95.2254   -2.0865 C.ar    1  UNL1        0.0454
     15 C          56.5400   94.4968   -4.5143 C.3     1  UNL1        0.0952
     16 N          58.0213   94.7209   -4.4391 N.am    1  UNL1       -0.3021
     17 C          58.7943   95.0485   -5.6821 C.2     1  UNL1        0.2241
     18 O          60.2756   95.2726   -5.6069 O.2     1  UNL1       -0.2750
     19 H          58.4861   94.6531   -3.5739 H       1  UNL1        0.1497
     20 C          58.0862   95.1518   -7.0004 C.3     1  UNL1        0.1018
     21 C          57.5513   96.4748   -7.4627 C.3     1  UNL1        0.0748
     22 N          56.1308   96.8545   -7.1662 N.3     1  UNL1       -0.3207
     23 H          55.5000   96.2302   -7.6690 H       1  UNL1        0.1189
     24 H          55.9666   97.8160   -7.4643 H       1  UNL1        0.1189
     25 C          55.9722   93.5811   -5.5578 C.3     1  UNL1        0.0242
     26 C          56.7361   91.4194   -6.7799 C.3     1  UNL1        0.0001
     27 C          56.2958   92.1167   -5.5270 C.3     1  UNL1        0.0020
     28 C          56.1790   91.3497   -4.2432 C.3     1  UNL1        0.0001
     29 C          62.1409   93.4480    0.3664 C.3     1  UNL1        0.1564
     30 N          63.0011   94.1862   -0.6160 N.am    1  UNL1       -0.2727
     31 C          63.8818   95.3609   -0.3084 C.3     1  UNL1        0.0943
     32 C          64.5567   95.7800   -1.5807 C.3     1  UNL1        0.0311
     33 C          64.0932   94.8642   -2.6747 C.3     1  UNL1        0.0870
     34 C          63.1318   93.8793   -2.0784 C.2     1  UNL1        0.2260
     35 O          62.4252   92.7803   -2.8152 O.2     1  UNL1       -0.2749
     36 C          62.4231   93.5509    1.8359 C.3     1  UNL1        0.0564
     37 C          61.5632   92.8124    2.8183 C.ar    1  UNL1       -0.0094
     38 C          60.1611   93.2745    3.0836 C.ar    1  UNL1       -0.0025
     39 C          59.3011   92.5360    4.0659 C.ar    1  UNL1        0.0111
     40 C          59.8433   91.3353    4.7831 C.ar    1  UNL1        0.0585
     41 CL         58.9834   90.5967    5.7654 Cl      1  UNL1       -0.0822
     42 C          61.2455   90.8731    4.5178 C.ar    1  UNL1        0.0225
     43 C          62.1055   91.6116    3.5355 C.ar    1  UNL1        0.0546
     44 CL         63.5076   91.1495    3.2702 Cl      1  UNL1       -0.0825
@<TRIPOS>BOND
     1    26    27    1
     2    27    28    1
     3    27    25    1
     4    15    25    1
     5    15    16    1
     6    16    17   am
     7    17    18    2
     8    17    20    1
     9    20    21    1
    10    21    22    1
    11    15     9    1
    12     9    10   ar
    13    10    11   ar
    14    11    12   ar
    15    12    13   ar
    16    13    14   ar
    17    14     1    1
    18     1     2    1
    19     2     3    1
    20     3     4    1
    21     4     5   am
    22     5     6    2
    23     5    29    1
    24    29    36    1
    25    36    37    1
    26    37    38   ar
    27    38    39   ar
    28    39    40   ar
    29    40    41    1
    30    40    42   ar
    31    42    43   ar
    32    43    44    1
    33    29    30    1
    34    30    31    1
    35    31    32    1
    36    32    33    1
    37    33    34    1
    38    34    35    2
    39     4     7    1
    40     7     8    1
    41    14     9   ar
    42     8     1    1
    43    43    37   ar
    44    34    30   am
    45    16    19    1
    46    22    23    1
    47    22    24    1
@<TRIPOS>MOLECULE
*****
 44 47 0 0 0
SMALL
GASTEIGER

@<TRIPOS>ATOM
      1 N          56.3873   95.0653   -1.5834 N.pl3   1  UNL1       -0.3043
      2 C          57.5247   95.9592   -1.1869 C.3     1  UNL1        0.1123
      3 C          58.8255   95.3631   -0.7369 C.3     1  UNL1        0.1149
      4 N          58.9889   93.8729   -0.6832 N.am    1  UNL1       -0.2747
      5 C          60.2896   93.2768   -0.2332 C.2     1  UNL1        0.2442
      6 O          60.4529   91.7867   -0.1795 O.2     1  UNL1       -0.2731
      7 C          57.8514   92.9790   -1.0796 C.3     1  UNL1        0.1149
      8 C          56.5506   93.5752   -1.5297 C.3     1  UNL1        0.1123
      9 C          54.7333   95.6775   -3.4912 C.ar    1  UNL1        0.0088
     10 C          53.4326   96.2737   -3.9412 C.ar    1  UNL1       -0.0015
     11 C          52.4850   96.8539   -2.9335 C.ar    1  UNL1       -0.0002
     12 C          52.8382   96.8379   -1.4758 C.ar    1  UNL1        0.0012
     13 C          54.1389   96.2417   -1.0258 C.ar    1  UNL1        0.0143
     14 C          55.0865   95.6615   -2.0335 C.ar    1  UNL1        0.0454
     15 C          55.6809   95.0973   -4.4989 C.3     1  UNL1        0.0952
     16 N          55.6756   93.6222   -4.7709 N.am    1  UNL1       -0.3021
     17 C          56.9387   92.9332   -5.1949 C.2     1  UNL1        0.2241
     18 O          56.9334   91.4580   -5.4669 O.2     1  UNL1       -0.2750
     19 H          54.8431   93.1062   -4.6712 H       1  UNL1        0.1497
     20 C          58.2072   93.7193   -5.3468 C.3     1  UNL1        0.1018
     21 C          59.2482   93.6792   -4.2676 C.3     1  UNL1        0.0748
     22 N          60.0078   94.9227   -3.9117 N.3     1  UNL1       -0.3207
     23 H          60.5906   95.2026   -4.7007 H       1  UNL1        0.1189
     24 H          60.5987   94.7397   -3.1006 H       1  UNL1        0.1189
     25 C          56.6337   95.9921   -5.2345 C.3     1  UNL1        0.0242
     26 C          57.5407   96.7260   -7.5560 C.3     1  UNL1        0.0001
     27 C          56.3945   96.3163   -6.6795 C.3     1  UNL1        0.0020
     28 C          55.0090   96.2306   -7.2478 C.3     1  UNL1        0.0001
     29 C          61.4270   94.1708    0.1633 C.3     1  UNL1        0.1564
     30 N          62.1372   94.9865   -0.8760 N.am    1  UNL1       -0.2727
     31 C          62.4730   96.4449   -0.7744 C.3     1  UNL1        0.0943
     32 C          63.1796   96.8468   -2.0350 C.3     1  UNL1        0.0311
     33 C          63.2806   95.6368   -2.9157 C.3     1  UNL1        0.0870
     34 C          62.6363   94.4871   -2.1994 C.2     1  UNL1        0.2260
     35 O          62.5129   93.0842   -2.7159 O.2     1  UNL1       -0.2749
     36 C          61.8542   94.2490    1.5990 C.3     1  UNL1        0.0564
     37 C          61.3204   93.2627    2.5952 C.ar    1  UNL1       -0.0094
     38 C          59.9400   93.4356    3.1559 C.ar    1  UNL1       -0.0025
     39 C          59.4061   92.4494    4.1520 C.ar    1  UNL1        0.0111
     40 C          60.2527   91.2903    4.5875 C.ar    1  UNL1        0.0585
     41 CL         59.7188   90.3040    5.5837 Cl      1  UNL1       -0.0822
     42 C          61.6332   91.1173    4.0268 C.ar    1  UNL1        0.0225
     43 C          62.1671   92.1036    3.0306 C.ar    1  UNL1        0.0546
     44 CL         63.5475   91.9307    2.4699 Cl      1  UNL1       -0.0825
@<TRIPOS>BOND
     1    26    27    1
     2    27    28    1
     3    27    25    1
     4    15    25    1
     5    15    16    1
     6    16    17   am
     7    17    18    2
     8    17    20    1
     9    20    21    1
    10    21    22    1
    11    15     9    1
    12     9    10   ar
    13    10    11   ar
    14    11    12   ar
    15    12    13   ar
    16    13    14   ar
    17    14     1    1
    18     1     2    1
    19     2     3    1
    20     3     4    1
    21     4     5   am
    22     5     6    2
    23     5    29    1
    24    29    36    1
    25    36    37    1
    26    37    38   ar
    27    38    39   ar
    28    39    40   ar
    29    40    41    1
    30    40    42   ar
    31    42    43   ar
    32    43    44    1
    33    29    30    1
    34    30    31    1
    35    31    32    1
    36    32    33    1
    37    33    34    1
    38    34    35    2
    39     4     7    1
    40     7     8    1
    41    14     9   ar
    42     8     1    1
    43    43    37   ar
    44    34    30   am
    45    16    19    1
    46    22    23    1
    47    22    24    1
@<TRIPOS>MOLECULE
*****
 44 47 0 0 0
SMALL
GASTEIGER

@<TRIPOS>ATOM
      1 N          57.2691   95.0467   -2.3671 N.pl3   1  UNL1       -0.3043
      2 C          58.2329   96.0743   -1.8524 C.3     1  UNL1        0.1123
      3 C          59.6793   95.7212   -1.6698 C.3     1  UNL1        0.1149
      4 N          60.1619   94.3403   -2.0019 N.am    1  UNL1       -0.2747
      5 C          61.6082   93.9871   -1.8193 C.2     1  UNL1        0.2442
      6 O          62.0907   92.6062   -2.1515 O.2     1  UNL1       -0.2731
      7 C          59.1981   93.3126   -2.5167 C.3     1  UNL1        0.1149
      8 C          57.7517   93.6658   -2.6993 C.3     1  UNL1        0.1123
      9 C          55.2727   95.6202   -3.9277 C.ar    1  UNL1        0.0088
     10 C          53.8264   95.9734   -4.1102 C.ar    1  UNL1       -0.0015
     11 C          52.9301   96.1063   -2.9148 C.ar    1  UNL1       -0.0002
     12 C          53.4802   95.8860   -1.5368 C.ar    1  UNL1        0.0012
     13 C          54.9265   95.5328   -1.3543 C.ar    1  UNL1        0.0143
     14 C          55.8228   95.3999   -2.5497 C.ar    1  UNL1        0.0454
     15 C          56.1689   95.4873   -5.1231 C.3     1  UNL1        0.0952
     16 N          55.7027   94.7272   -6.3292 N.am    1  UNL1       -0.3021
     17 C          55.7960   93.2303   -6.3547 C.2     1  UNL1        0.2241
     18 O          55.3298   92.4701   -7.5609 O.2     1  UNL1       -0.2750
     19 H          55.3355   95.2107   -7.1042 H       1  UNL1        0.1497
     20 C          56.3556   92.4935   -5.1740 C.3     1  UNL1        0.1018
     21 C          55.7100   91.2221   -4.7085 C.3     1  UNL1        0.0748
     22 N          56.2259   90.5229   -3.4859 N.3     1  UNL1       -0.3207
     23 H          57.1700   90.1799   -3.6634 H       1  UNL1        0.1189
     24 H          55.6156   89.7373   -3.2605 H       1  UNL1        0.1189
     25 C          57.5314   96.1145   -5.1124 C.3     1  UNL1        0.0242
     26 C          58.7002   96.6939   -7.3593 C.3     1  UNL1        0.0001
     27 C          58.5217   95.7754   -6.1870 C.3     1  UNL1        0.0020
     28 C          59.3334   94.5179   -6.0890 C.3     1  UNL1        0.0001
     29 C          62.5720   95.0148   -1.3046 C.3     1  UNL1        0.1564
     30 N          63.4997   95.7145   -2.2530 N.am    1  UNL1       -0.2727
     31 C          64.9469   96.0218   -2.0052 C.3     1  UNL1        0.0943
     32 C          65.4848   96.7269   -3.2148 C.3     1  UNL1        0.0311
     33 C          64.3701   96.8554   -4.2104 C.3     1  UNL1        0.0870
     34 C          63.1433   96.2297   -3.6159 C.2     1  UNL1        0.2260
     35 O          61.7965   96.1357   -4.2696 O.2     1  UNL1       -0.2749
     36 C          62.6080   95.3428    0.1587 C.3     1  UNL1        0.0564
     37 C          62.3118   94.2785    1.1734 C.ar    1  UNL1       -0.0094
     38 C          63.3596   93.2641    1.5240 C.ar    1  UNL1       -0.0025
     39 C          63.0634   92.1999    2.5387 C.ar    1  UNL1        0.0111
     40 C          61.7194   92.1500    3.2028 C.ar    1  UNL1        0.0585
     41 CL         61.4232   91.0857    4.2175 Cl      1  UNL1       -0.0822
     42 C          60.6714   93.1644    2.8521 C.ar    1  UNL1        0.0225
     43 C          60.9676   94.2287    1.8374 C.ar    1  UNL1        0.0546
     44 CL         59.9198   95.2431    1.4868 Cl      1  UNL1       -0.0825
@<TRIPOS>BOND
     1    26    27    1
     2    27    28    1
     3    27    25    1
     4    15    25    1
     5    15    16    1
     6    16    17   am
     7    17    18    2
     8    17    20    1
     9    20    21    1
    10    21    22    1
    11    15     9    1
    12     9    10   ar
    13    10    11   ar
    14    11    12   ar
    15    12    13   ar
    16    13    14   ar
    17    14     1    1
    18     1     2    1
    19     2     3    1
    20     3     4    1
    21     4     5   am
    22     5     6    2
    23     5    29    1
    24    29    36    1
    25    36    37    1
    26    37    38   ar
    27    38    39   ar
    28    39    40   ar
    29    40    41    1
    30    40    42   ar
    31    42    43   ar
    32    43    44    1
    33    29    30    1
    34    30    31    1
    35    31    32    1
    36    32    33    1
    37    33    34    1
    38    34    35    2
    39     4     7    1
    40     7     8    1
    41    14     9   ar
    42     8     1    1
    43    43    37   ar
    44    34    30   am
    45    16    19    1
    46    22    23    1
    47    22    24    1
@<TRIPOS>MOLECULE
*****
 44 47 0 0 0
SMALL
GASTEIGER

@<TRIPOS>ATOM
      1 N          61.5665   88.7561   10.4780 N.pl3   1  UNL1       -0.3043
      2 C          62.9800   89.1879   10.2218 C.3     1  UNL1        0.1123
      3 C          63.7245   89.9725   11.2610 C.3     1  UNL1        0.1149
      4 N          63.0556   90.3254   12.5565 N.am    1  UNL1       -0.2747
      5 C          63.8001   91.1100   13.5956 C.2     1  UNL1        0.2442
      6 O          63.1312   91.4628   14.8910 O.2     1  UNL1       -0.2731
      7 C          61.6421   89.8935   12.8126 C.3     1  UNL1        0.1149
      8 C          60.8976   89.1089   11.7734 C.3     1  UNL1        0.1123
      9 C          60.9948   86.4837    9.3556 C.ar    1  UNL1        0.0088
     10 C          60.2503   85.6991    8.3164 C.ar    1  UNL1       -0.0015
     11 C          59.3329   86.4022    7.3603 C.ar    1  UNL1       -0.0002
     12 C          59.1601   87.8898    7.4434 C.ar    1  UNL1        0.0012
     13 C          59.9047   88.6744    8.4826 C.ar    1  UNL1        0.0143
     14 C          60.8220   87.9714    9.4387 C.ar    1  UNL1        0.0454
     15 C          61.9121   85.7806   10.3118 C.3     1  UNL1        0.0952
     16 N          63.1765   85.1483    9.8104 N.am    1  UNL1       -0.3021
     17 C          63.4485   83.6983   10.0812 C.2     1  UNL1        0.2241
     18 O          64.7130   83.0659    9.5798 O.2     1  UNL1       -0.2750
     19 H          63.8279   85.6850    9.3035 H       1  UNL1        0.1497
     20 C          62.4561   82.8805   10.8535 C.3     1  UNL1        0.1018
     21 C          62.9251   81.7325   11.6973 C.3     1  UNL1        0.0748
     22 N          64.2885   81.7684   12.3216 N.3     1  UNL1       -0.3207
     23 H          64.9984   81.7434   11.5896 H       1  UNL1        0.1189
     24 H          64.4033   80.9610   12.9343 H       1  UNL1        0.1189
     25 C          61.5651   85.7099   11.7693 C.3     1  UNL1        0.0242
     26 C          62.7820   84.5179   13.7310 C.3     1  UNL1        0.0001
     27 C          62.6551   85.6867   12.7996 C.3     1  UNL1        0.0020
     28 C          63.6183   86.8324   12.8983 C.3     1  UNL1        0.0001
     29 C          65.2136   91.5419   13.3395 C.3     1  UNL1        0.1564
     30 N          65.5075   92.5495   12.2679 N.am    1  UNL1       -0.2727
     31 C          65.4251   92.3131   10.7889 C.3     1  UNL1        0.0943
     32 C          65.8020   93.5879   10.0940 C.3     1  UNL1        0.0311
     33 C          66.1174   94.6121   11.1436 C.3     1  UNL1        0.0870
     34 C          65.9353   93.9703   12.4871 C.2     1  UNL1        0.2260
     35 O          66.1444   94.6331   13.8164 O.2     1  UNL1       -0.2749
     36 C          66.3332   90.9661   14.1549 C.3     1  UNL1        0.0564
     37 C          67.4189   91.8607   14.6754 C.ar    1  UNL1       -0.0094
     38 C          68.7405   91.9255   13.9689 C.ar    1  UNL1       -0.0025
     39 C          69.8262   92.8200   14.4894 C.ar    1  UNL1        0.0111
     40 C          69.5904   93.6498   15.7165 C.ar    1  UNL1        0.0585
     41 CL         70.6761   94.5443   16.2371 Cl      1  UNL1       -0.0822
     42 C          68.2688   93.5850   16.4231 C.ar    1  UNL1        0.0225
     43 C          67.1831   92.6905   15.9026 C.ar    1  UNL1        0.0546
     44 CL         65.8615   92.6257   16.6092 Cl      1  UNL1       -0.0825
@<TRIPOS>BOND
     1    26    27    1
     2    27    28    1
     3    27    25    1
     4    15    25    1
     5    15    16    1
     6    16    17   am
     7    17    18    2
     8    17    20    1
     9    20    21    1
    10    21    22    1
    11    15     9    1
    12     9    10   ar
    13    10    11   ar
    14    11    12   ar
    15    12    13   ar
    16    13    14   ar
    17    14     1    1
    18     1     2    1
    19     2     3    1
    20     3     4    1
    21     4     5   am
    22     5     6    2
    23     5    29    1
    24    29    36    1
    25    36    37    1
    26    37    38   ar
    27    38    39   ar
    28    39    40   ar
    29    40    41    1
    30    40    42   ar
    31    42    43   ar
    32    43    44    1
    33    29    30    1
    34    30    31    1
    35    31    32    1
    36    32    33    1
    37    33    34    1
    38    34    35    2
    39     4     7    1
    40     7     8    1
    41    14     9   ar
    42     8     1    1
    43    43    37   ar
    44    34    30   am
    45    16    19    1
    46    22    23    1
    47    22    24    1
