@<TRIPOS>MOLECULE
*****
 44 47 0 0 0
SMALL
GASTEIGER

@<TRIPOS>ATOM
      1 C          60.8549   88.4094    9.5045 C.3     1  UNL1        0.0965
      2 C          59.6447   88.6364    8.6478 C.3     1  UNL1        0.0746
      3 N          59.1956   87.5749    7.6879 N.3     1  UNL1       -0.3207
      4 H          59.9000   87.4548    6.9600 H       1  UNL1        0.1189
      5 H          58.3113   87.8532    7.2626 H       1  UNL1        0.1189
      6 N          61.4885   86.0282   10.3282 N.am    1  UNL1       -0.2770
      7 C          60.8318   87.3548   10.5710 C.2     1  UNL1        0.2270
      8 O          60.1520   87.6267   11.8801 O.2     1  UNL1       -0.2748
      9 C          62.1683   85.7563    9.0190 C.3     1  UNL1        0.0758
     10 C          63.4209   85.6757    8.1978 C.3     1  UNL1        0.0215
     11 C          62.0931   85.3659    7.5726 C.3     1  UNL1        0.0215
     12 C          61.4654   84.9736   11.3946 C.3     1  UNL1        0.1209
     13 C          64.1118   85.3304   14.3305 C.ar    1  UNL1       -0.0223
     14 C          65.1052   84.2742   13.9466 C.ar    1  UNL1       -0.0034
     15 C          64.8854   83.4511   12.7120 C.ar    1  UNL1        0.0108
     16 C          63.6722   83.6842   11.8613 C.ar    1  UNL1        0.0553
     17 CL         63.4524   82.8611   10.6267 Cl      1  UNL1       -0.0825
     18 C          62.6787   84.7404   12.2452 C.ar    1  UNL1        0.0079
     19 C          62.8985   85.5636   13.4798 C.ar    1  UNL1       -0.0060
     20 C          64.3316   86.1536   15.5651 C.3     1  UNL1        0.0289
     21 C          63.3867   86.0344   16.7239 C.3     1  UNL1        0.0367
     22 C          62.8982   87.2683   17.4232 C.3     1  UNL1        0.1426
     23 C          63.1717   89.7087   16.5749 C.3     1  UNL1        0.1741
     24 O          62.3878   88.4308   16.6243 O.3     1  UNL1       -0.3511
     25 C          62.0881   89.2371    9.2948 C.3     1  UNL1        0.0368
     26 C          62.8156   89.8112   10.4743 C.ar    1  UNL1       -0.0217
     27 C          63.3792   91.1996   10.4047 C.ar    1  UNL1       -0.0046
     28 C          64.1066   91.7737   11.5841 C.ar    1  UNL1       -0.0046
     29 C          64.2705   90.9595   12.8333 C.ar    1  UNL1       -0.0221
     30 C          63.7069   89.5712   12.9029 C.ar    1  UNL1       -0.0046
     31 C          62.9794   88.9970   11.7233 C.ar    1  UNL1       -0.0046
     32 C          64.9979   91.5337   14.0127 C.3     1  UNL1        0.0302
     33 C          66.4965   91.4929   14.0621 C.3     1  UNL1        0.0520
     34 C          67.3006   92.4499   13.2328 C.3     1  UNL1        0.2058
     35 O          67.4451   92.2250   11.7569 O.3     1  UNL1       -0.4737
     36 C          67.3280   93.3803   10.8072 C.ar    1  UNL1        0.1594
     37 C          67.8766   93.2659    9.4158 C.ar    1  UNL1        0.0921
     38 CL         68.5423   91.9963    8.9741 Cl      1  UNL1       -0.0791
     39 C          67.7596   94.4210    8.4662 C.ar    1  UNL1        0.0103
     40 C          67.0939   95.6906    8.9079 C.ar    1  UNL1       -0.0200
     41 C          66.9769   96.8458    7.9582 C.3     1  UNL1        0.0311
     42 C          66.5453   95.8050   10.2993 C.ar    1  UNL1        0.0103
     43 C          66.6624   94.6498   11.2489 C.ar    1  UNL1        0.0921
     44 CL         66.1138   94.7641   12.6403 Cl      1  UNL1       -0.0791
@<TRIPOS>BOND
     1    23    24    1
     2    24    22    1
     3    22    21    1
     4    21    20    1
     5    20    13    1
     6    13    14   ar
     7    14    15   ar
     8    15    16   ar
     9    16    17    1
    10    16    18   ar
    11    18    12    1
    12    12     6    1
    13     6     7   am
    14     7     8    2
    15     7     1    1
    16     1     2    1
    17     2     3    1
    18     1    25    1
    19    25    26    1
    20    26    27   ar
    21    27    28   ar
    22    28    29   ar
    23    29    32    1
    24    32    33    1
    25    33    34    1
    26    34    35    1
    27    35    36    1
    28    36    37   ar
    29    37    38    1
    30    37    39   ar
    31    39    40   ar
    32    40    41    1
    33    40    42   ar
    34    42    43   ar
    35    43    44    1
    36    29    30   ar
    37    30    31   ar
    38     6     9    1
    39     9    10    1
    40    10    11    1
    41    18    19   ar
    42    19    13   ar
    43    31    26   ar
    44    11     9    1
    45    43    36   ar
    46     3     4    1
    47     3     5    1
@<TRIPOS>MOLECULE
*****
 44 47 0 0 0
SMALL
GASTEIGER

@<TRIPOS>ATOM
      1 C          61.7612   89.1695   10.9118 C.3     1  UNL1        0.0965
      2 C          60.7821   88.7606   11.9720 C.3     1  UNL1        0.0746
      3 N          59.8697   89.7817   12.5843 N.3     1  UNL1       -0.3207
      4 H          60.4216   90.4572   13.1130 H       1  UNL1        0.1189
      5 H          59.2107   89.3176   13.2092 H       1  UNL1        0.1189
      6 N          63.3936   90.6879   12.2460 N.am    1  UNL1       -0.2770
      7 C          62.5208   90.4558   11.0483 C.2     1  UNL1        0.2270
      8 O          62.4077   91.5099    9.9871 O.2     1  UNL1       -0.2748
      9 C          63.5067   89.6338   13.3072 C.3     1  UNL1        0.0758
     10 C          63.2692   89.1786   14.7165 C.3     1  UNL1        0.0215
     11 C          63.9400   88.2632   13.7357 C.3     1  UNL1        0.0215
     12 C          64.1532   91.9741   12.3825 C.3     1  UNL1        0.1209
     13 C          67.7097   92.2114   10.6376 C.ar    1  UNL1       -0.0223
     14 C          68.6172   92.0218   11.8167 C.ar    1  UNL1       -0.0034
     15 C          68.0367   91.8163   13.1845 C.ar    1  UNL1        0.0108
     16 C          66.5487   91.8004   13.3731 C.ar    1  UNL1        0.0553
     17 CL         65.9682   91.5949   14.7409 Cl      1  UNL1       -0.0825
     18 C          65.6412   91.9900   12.1939 C.ar    1  UNL1        0.0079
     19 C          66.2217   92.1955   10.8262 C.ar    1  UNL1       -0.0060
     20 C          68.2902   92.4169    9.2698 C.3     1  UNL1        0.0289
     21 C          68.3569   93.7956    8.6827 C.3     1  UNL1        0.0367
     22 C          67.2335   94.7631    8.9109 C.3     1  UNL1        0.1426
     23 C          66.1499   95.8295   11.0178 C.3     1  UNL1        0.1741
     24 O          67.2970   95.7295   10.0564 O.3     1  UNL1       -0.3511
     25 C          61.9808   88.2922    9.7151 C.3     1  UNL1        0.0368
     26 C          62.4249   86.8712    9.8982 C.ar    1  UNL1       -0.0217
     27 C          62.4016   86.2481   11.2624 C.ar    1  UNL1       -0.0046
     28 C          62.8456   84.8271   11.4456 C.ar    1  UNL1       -0.0046
     29 C          63.3130   84.0292   10.2644 C.ar    1  UNL1       -0.0221
     30 C          63.3363   84.6524    8.9002 C.ar    1  UNL1       -0.0046
     31 C          62.8922   86.0734    8.7171 C.ar    1  UNL1       -0.0046
     32 C          63.7570   82.6082   10.4475 C.3     1  UNL1        0.0302
     33 C          63.0312   81.7135   11.4081 C.3     1  UNL1        0.0520
     34 C          63.5947   81.4681   12.7764 C.3     1  UNL1        0.2058
     35 O          64.5199   82.4721   13.3977 O.3     1  UNL1       -0.4737
     36 C          63.9921   83.4640   14.3915 C.ar    1  UNL1        0.1594
     37 C          64.8387   84.6296   14.8097 C.ar    1  UNL1        0.0921
     38 CL         66.2130   84.8032   14.2342 Cl      1  UNL1       -0.0791
     39 C          64.3110   85.6215   15.8035 C.ar    1  UNL1        0.0103
     40 C          62.9367   85.4479   16.3791 C.ar    1  UNL1       -0.0200
     41 C          62.4090   86.4398   17.3728 C.3     1  UNL1        0.0311
     42 C          62.0901   84.2824   15.9608 C.ar    1  UNL1        0.0103
     43 C          62.6179   83.2904   14.9670 C.ar    1  UNL1        0.0921
     44 CL         61.7714   82.1249   14.5488 Cl      1  UNL1       -0.0791
@<TRIPOS>BOND
     1    23    24    1
     2    24    22    1
     3    22    21    1
     4    21    20    1
     5    20    13    1
     6    13    14   ar
     7    14    15   ar
     8    15    16   ar
     9    16    17    1
    10    16    18   ar
    11    18    12    1
    12    12     6    1
    13     6     7   am
    14     7     8    2
    15     7     1    1
    16     1     2    1
    17     2     3    1
    18     1    25    1
    19    25    26    1
    20    26    27   ar
    21    27    28   ar
    22    28    29   ar
    23    29    32    1
    24    32    33    1
    25    33    34    1
    26    34    35    1
    27    35    36    1
    28    36    37   ar
    29    37    38    1
    30    37    39   ar
    31    39    40   ar
    32    40    41    1
    33    40    42   ar
    34    42    43   ar
    35    43    44    1
    36    29    30   ar
    37    30    31   ar
    38     6     9    1
    39     9    10    1
    40    10    11    1
    41    18    19   ar
    42    19    13   ar
    43    31    26   ar
    44    11     9    1
    45    43    36   ar
    46     3     4    1
    47     3     5    1
@<TRIPOS>MOLECULE
*****
 44 47 0 0 0
SMALL
GASTEIGER

@<TRIPOS>ATOM
      1 C          61.9991   86.0475   10.8043 C.3     1  UNL1        0.0965
      2 C          62.4645   85.1177    9.7232 C.3     1  UNL1        0.0746
      3 N          63.0197   85.6722    8.4448 N.3     1  UNL1       -0.3207
      4 H          62.2834   86.1657    7.9402 H       1  UNL1        0.1189
      5 H          63.3739   84.9087    7.8685 H       1  UNL1        0.1189
      6 N          63.4767   85.2509   12.7872 N.am    1  UNL1       -0.2770
      7 C          62.8998   86.3625   11.9617 C.2     1  UNL1        0.2270
      8 O          63.2234   87.7890   12.2937 O.2     1  UNL1       -0.2748
      9 C          63.1530   83.8243   12.4552 C.3     1  UNL1        0.0758
     10 C          62.4153   82.5546   12.7611 C.3     1  UNL1        0.0215
     11 C          63.3301   82.6232   11.5743 C.3     1  UNL1        0.0215
     12 C          64.3773   85.5658   13.9446 C.3     1  UNL1        0.1209
     13 C          63.4231   88.5242   16.4119 C.ar    1  UNL1       -0.0223
     14 C          62.7588   87.7646   17.5217 C.ar    1  UNL1       -0.0034
     15 C          62.6341   86.2721   17.4392 C.ar    1  UNL1        0.0108
     16 C          63.1735   85.5392   16.2469 C.ar    1  UNL1        0.0553
     17 CL         63.0487   84.0466   16.1643 Cl      1  UNL1       -0.0825
     18 C          63.8378   86.2987   15.1370 C.ar    1  UNL1        0.0079
     19 C          63.9626   87.7913   15.2196 C.ar    1  UNL1       -0.0060
     20 C          63.5479   90.0167   16.4944 C.3     1  UNL1        0.0289
     21 C          64.0357   90.7953   15.3087 C.3     1  UNL1        0.0367
     22 C          65.3142   91.5747   15.3976 C.3     1  UNL1        0.1426
     23 C          66.8489   93.4417   14.4441 C.3     1  UNL1        0.1741
     24 O          65.4897   92.8228   14.5843 O.3     1  UNL1       -0.3511
     25 C          60.6330   86.6624   10.7279 C.3     1  UNL1        0.0368
     26 C          60.2576   87.5117    9.5500 C.ar    1  UNL1       -0.0217
     27 C          60.6004   88.9720    9.5385 C.ar    1  UNL1       -0.0046
     28 C          60.2250   89.8213    8.3605 C.ar    1  UNL1       -0.0046
     29 C          59.5066   89.2103    7.1939 C.ar    1  UNL1       -0.0221
     30 C          59.1638   87.7501    7.2054 C.ar    1  UNL1       -0.0046
     31 C          59.5393   86.9008    8.3835 C.ar    1  UNL1       -0.0046
     32 C          59.1312   90.0596    6.0160 C.3     1  UNL1        0.0302
     33 C          60.1906   90.8088    5.2634 C.3     1  UNL1        0.0520
     34 C          59.8108   91.9591    4.3789 C.3     1  UNL1        0.2058
     35 O          60.2118   91.9582    2.9335 O.3     1  UNL1       -0.4737
     36 C          61.3814   92.7802    2.4791 C.ar    1  UNL1        0.1594
     37 C          62.7787   92.2768    2.6892 C.ar    1  UNL1        0.0921
     38 CL         63.0064   90.9514    3.3536 Cl      1  UNL1       -0.0791
     39 C          63.9482   93.0988    2.2349 C.ar    1  UNL1        0.0103
     40 C          63.7205   94.4242    1.5705 C.ar    1  UNL1       -0.0200
     41 C          64.8901   95.2462    1.1161 C.3     1  UNL1        0.0311
     42 C          62.3232   94.9276    1.3604 C.ar    1  UNL1        0.0103
     43 C          61.1536   94.1056    1.8148 C.ar    1  UNL1        0.0921
     44 CL         59.7563   94.6090    1.6047 Cl      1  UNL1       -0.0791
@<TRIPOS>BOND
     1    23    24    1
     2    24    22    1
     3    22    21    1
     4    21    20    1
     5    20    13    1
     6    13    14   ar
     7    14    15   ar
     8    15    16   ar
     9    16    17    1
    10    16    18   ar
    11    18    12    1
    12    12     6    1
    13     6     7   am
    14     7     8    2
    15     7     1    1
    16     1     2    1
    17     2     3    1
    18     1    25    1
    19    25    26    1
    20    26    27   ar
    21    27    28   ar
    22    28    29   ar
    23    29    32    1
    24    32    33    1
    25    33    34    1
    26    34    35    1
    27    35    36    1
    28    36    37   ar
    29    37    38    1
    30    37    39   ar
    31    39    40   ar
    32    40    41    1
    33    40    42   ar
    34    42    43   ar
    35    43    44    1
    36    29    30   ar
    37    30    31   ar
    38     6     9    1
    39     9    10    1
    40    10    11    1
    41    18    19   ar
    42    19    13   ar
    43    31    26   ar
    44    11     9    1
    45    43    36   ar
    46     3     4    1
    47     3     5    1
@<TRIPOS>MOLECULE
*****
 44 47 0 0 0
SMALL
GASTEIGER

@<TRIPOS>ATOM
      1 C          61.9646   86.4424   10.8753 C.3     1  UNL1        0.0965
      2 C          62.5832   85.7594    9.6918 C.3     1  UNL1        0.0746
      3 N          63.3233   84.4674    9.8737 N.3     1  UNL1       -0.3207
      4 H          64.1603   84.6309   10.4332 H       1  UNL1        0.1189
      5 H          63.5909   84.0975    8.9616 H       1  UNL1        0.1189
      6 N          63.2202   87.8521   12.6604 N.am    1  UNL1       -0.2770
      7 C          62.7169   86.5267   12.1704 C.2     1  UNL1        0.2270
      8 O          62.9658   85.2858   12.9754 O.2     1  UNL1       -0.2748
      9 C          62.9713   89.0931   11.8553 C.3     1  UNL1        0.0758
     10 C          63.2306   89.9219   10.6323 C.3     1  UNL1        0.0215
     11 C          62.2808   90.4136   11.6840 C.3     1  UNL1        0.0215
     12 C          63.9725   87.9365   13.9553 C.3     1  UNL1        0.1209
     13 C          65.3333   91.6185   14.5398 C.ar    1  UNL1       -0.0223
     14 C          64.7163   91.9411   15.8684 C.ar    1  UNL1       -0.0034
     15 C          63.8514   90.9289   16.5593 C.ar    1  UNL1        0.0108
     16 C          63.6035   89.5941   15.9217 C.ar    1  UNL1        0.0553
     17 CL         62.7385   88.5819   16.6126 Cl      1  UNL1       -0.0825
     18 C          64.2204   89.2714   14.5931 C.ar    1  UNL1        0.0079
     19 C          65.0853   90.2836   13.9021 C.ar    1  UNL1       -0.0060
     20 C          66.1982   92.6306   13.8488 C.3     1  UNL1        0.0289
     21 C          65.8308   93.1216   12.4800 C.3     1  UNL1        0.0367
     22 C          66.7929   92.9573   11.3410 C.3     1  UNL1        0.1426
     23 C          67.8985   94.0444    9.2562 C.3     1  UNL1        0.1741
     24 O          67.3446   94.1662   10.6449 O.3     1  UNL1       -0.3511
     25 C          60.5938   87.0410   10.7639 C.3     1  UNL1        0.0368
     26 C          60.2072   87.8058    9.5329 C.ar    1  UNL1       -0.0217
     27 C          60.2067   89.3057    9.5510 C.ar    1  UNL1       -0.0046
     28 C          59.8201   90.0705    8.3199 C.ar    1  UNL1       -0.0046
     29 C          59.4339   89.3355    7.0707 C.ar    1  UNL1       -0.0221
     30 C          59.4344   87.8356    7.0526 C.ar    1  UNL1       -0.0046
     31 C          59.8210   87.0708    8.2837 C.ar    1  UNL1       -0.0046
     32 C          59.0473   90.1003    5.8396 C.3     1  UNL1        0.0302
     33 C          60.0590   90.9609    5.1427 C.3     1  UNL1        0.0520
     34 C          59.6066   92.0395    4.2036 C.3     1  UNL1        0.2058
     35 O          60.0880   92.0475    2.7830 O.3     1  UNL1       -0.4737
     36 C          61.2723   92.8834    2.3971 C.ar    1  UNL1        0.1594
     37 C          61.0673   94.2195    1.7467 C.ar    1  UNL1        0.0921
     38 CL         59.6781   94.7196    1.4822 Cl      1  UNL1       -0.0791
     39 C          62.2515   95.0554    1.3609 C.ar    1  UNL1        0.0103
     40 C          63.6408   94.5552    1.6254 C.ar    1  UNL1       -0.0200
     41 C          64.8250   95.3911    1.2396 C.3     1  UNL1        0.0311
     42 C          63.8457   93.2192    2.2758 C.ar    1  UNL1        0.0103
     43 C          62.6615   92.3833    2.6617 C.ar    1  UNL1        0.0921
     44 CL         62.8664   91.0473    3.3121 Cl      1  UNL1       -0.0791
@<TRIPOS>BOND
     1    23    24    1
     2    24    22    1
     3    22    21    1
     4    21    20    1
     5    20    13    1
     6    13    14   ar
     7    14    15   ar
     8    15    16   ar
     9    16    17    1
    10    16    18   ar
    11    18    12    1
    12    12     6    1
    13     6     7   am
    14     7     8    2
    15     7     1    1
    16     1     2    1
    17     2     3    1
    18     1    25    1
    19    25    26    1
    20    26    27   ar
    21    27    28   ar
    22    28    29   ar
    23    29    32    1
    24    32    33    1
    25    33    34    1
    26    34    35    1
    27    35    36    1
    28    36    37   ar
    29    37    38    1
    30    37    39   ar
    31    39    40   ar
    32    40    41    1
    33    40    42   ar
    34    42    43   ar
    35    43    44    1
    36    29    30   ar
    37    30    31   ar
    38     6     9    1
    39     9    10    1
    40    10    11    1
    41    18    19   ar
    42    19    13   ar
    43    31    26   ar
    44    11     9    1
    45    43    36   ar
    46     3     4    1
    47     3     5    1
@<TRIPOS>MOLECULE
*****
 44 47 0 0 0
SMALL
GASTEIGER

@<TRIPOS>ATOM
      1 C          60.6071   89.1078   11.2624 C.3     1  UNL1        0.0965
      2 C          59.3542   89.5736   11.9428 C.3     1  UNL1        0.0746
      3 N          58.6673   88.6867   12.9386 N.3     1  UNL1       -0.3207
      4 H          58.3064   87.8589   12.4644 H       1  UNL1        0.1189
      5 H          57.8955   89.1946   13.3708 H       1  UNL1        0.1189
      6 N          60.5040   87.0891    9.6300 N.am    1  UNL1       -0.2770
      7 C          60.8128   87.6475   10.9875 C.2     1  UNL1        0.2270
      8 O          61.3272   86.7457   12.0701 O.2     1  UNL1       -0.2748
      9 C          59.9895   87.9910    8.5473 C.3     1  UNL1        0.0758
     10 C          60.0626   89.2833    7.7893 C.3     1  UNL1        0.0215
     11 C          59.0255   88.2608    7.4303 C.3     1  UNL1        0.0215
     12 C          60.7097   85.6290    9.3551 C.3     1  UNL1        0.1209
     13 C          63.2953   83.9056   11.8238 C.ar    1  UNL1       -0.0223
     14 C          64.4011   83.5516   10.8741 C.ar    1  UNL1       -0.0034
     15 C          64.2764   83.8900    9.4181 C.ar    1  UNL1        0.0108
     16 C          63.0460   84.5824    8.9118 C.ar    1  UNL1        0.0553
     17 CL         62.9213   84.9208    7.4558 Cl      1  UNL1       -0.0825
     18 C          61.9402   84.9365    9.8614 C.ar    1  UNL1        0.0079
     19 C          62.0649   84.5981   11.3174 C.ar    1  UNL1       -0.0060
     20 C          63.4200   83.5672   13.2798 C.3     1  UNL1        0.0289
     21 C          62.9390   84.5362   14.3188 C.3     1  UNL1        0.0367
     22 C          63.9194   85.1854   15.2501 C.3     1  UNL1        0.1426
     23 C          62.6137   86.1393   17.2836 C.3     1  UNL1        0.1741
     24 O          63.4957   86.3541   16.0895 O.3     1  UNL1       -0.3511
     25 C          61.6544   90.1020   10.8568 C.3     1  UNL1        0.0368
     26 C          62.7868   90.4204   11.7875 C.ar    1  UNL1       -0.0217
     27 C          63.6005   91.6635   11.5811 C.ar    1  UNL1       -0.0046
     28 C          64.7329   91.9818   12.5118 C.ar    1  UNL1       -0.0046
     29 C          65.0517   91.0569   13.6490 C.ar    1  UNL1       -0.0221
     30 C          64.2381   89.8138   13.8554 C.ar    1  UNL1       -0.0046
     31 C          63.1056   89.4955   12.9246 C.ar    1  UNL1       -0.0046
     32 C          66.1841   91.3753   14.5797 C.3     1  UNL1        0.0302
     33 C          67.5761   91.5291   14.0423 C.3     1  UNL1        0.0520
     34 C          67.8884   92.6308   13.0735 C.3     1  UNL1        0.2058
     35 O          67.8148   92.3747   11.5973 O.3     1  UNL1       -0.4737
     36 C          67.4793   93.4948   10.6576 C.ar    1  UNL1        0.1594
     37 C          66.7097   94.6835   11.1521 C.ar    1  UNL1        0.0921
     38 CL         66.2755   94.7522   12.5863 Cl      1  UNL1       -0.0791
     39 C          66.3742   95.8035   10.2124 C.ar    1  UNL1        0.0103
     40 C          66.8084   95.7348    8.7782 C.ar    1  UNL1       -0.0200
     41 C          66.4729   96.8549    7.8386 C.3     1  UNL1        0.0311
     42 C          67.5781   94.5461    8.2838 C.ar    1  UNL1        0.0103
     43 C          67.9135   93.4261    9.2235 C.ar    1  UNL1        0.0921
     44 CL         68.6832   92.2373    8.7290 Cl      1  UNL1       -0.0791
@<TRIPOS>BOND
     1    23    24    1
     2    24    22    1
     3    22    21    1
     4    21    20    1
     5    20    13    1
     6    13    14   ar
     7    14    15   ar
     8    15    16   ar
     9    16    17    1
    10    16    18   ar
    11    18    12    1
    12    12     6    1
    13     6     7   am
    14     7     8    2
    15     7     1    1
    16     1     2    1
    17     2     3    1
    18     1    25    1
    19    25    26    1
    20    26    27   ar
    21    27    28   ar
    22    28    29   ar
    23    29    32    1
    24    32    33    1
    25    33    34    1
    26    34    35    1
    27    35    36    1
    28    36    37   ar
    29    37    38    1
    30    37    39   ar
    31    39    40   ar
    32    40    41    1
    33    40    42   ar
    34    42    43   ar
    35    43    44    1
    36    29    30   ar
    37    30    31   ar
    38     6     9    1
    39     9    10    1
    40    10    11    1
    41    18    19   ar
    42    19    13   ar
    43    31    26   ar
    44    11     9    1
    45    43    36   ar
    46     3     4    1
    47     3     5    1
@<TRIPOS>MOLECULE
*****
 44 47 0 0 0
SMALL
GASTEIGER

@<TRIPOS>ATOM
      1 C          60.1794   89.6582   10.7175 C.3     1  UNL1        0.0965
      2 C          58.9229   90.1854   11.3446 C.3     1  UNL1        0.0746
      3 N          58.7910   91.6494   11.6433 N.3     1  UNL1       -0.3207
      4 H          59.4642   91.9115   12.3633 H       1  UNL1        0.1189
      5 H          57.8461   91.8451   11.9738 H       1  UNL1        0.1189
      6 N          60.1273   87.5705    9.1718 N.am    1  UNL1       -0.2770
      7 C          60.3578   88.1816   10.5221 C.2     1  UNL1        0.2270
      8 O          60.7666   87.3163   11.6771 O.2     1  UNL1       -0.2748
      9 C          59.7185   88.4359    8.0168 C.3     1  UNL1        0.0758
     10 C          58.7780   88.7360    6.8875 C.3     1  UNL1        0.0215
     11 C          59.9509   89.6346    7.1456 C.3     1  UNL1        0.0215
     12 C          60.3057   86.0940    8.9765 C.3     1  UNL1        0.1209
     13 C          63.0332   84.6509   11.4721 C.ar    1  UNL1       -0.0223
     14 C          64.0133   84.0537   10.5064 C.ar    1  UNL1       -0.0034
     15 C          63.7575   84.1365    9.0306 C.ar    1  UNL1        0.0108
     16 C          62.5216   84.8166    8.5207 C.ar    1  UNL1        0.0553
     17 CL         62.2659   84.8994    7.0450 Cl      1  UNL1       -0.0825
     18 C          61.5416   85.4139    9.4864 C.ar    1  UNL1        0.0079
     19 C          61.7974   85.3310   10.9621 C.ar    1  UNL1       -0.0060
     20 C          63.2890   84.5681   12.9478 C.3     1  UNL1        0.0289
     21 C          62.6432   83.4860   13.7614 C.3     1  UNL1        0.0367
     22 C          62.5885   82.0827   13.2343 C.3     1  UNL1        0.1426
     23 C          60.6425   80.6053   14.1177 C.3     1  UNL1        0.1741
     24 O          62.0974   80.9703   14.1126 O.3     1  UNL1       -0.3511
     25 C          61.2575   90.6075   10.2856 C.3     1  UNL1        0.0368
     26 C          62.4387   90.8562   11.1760 C.ar    1  UNL1       -0.0217
     27 C          63.6028   91.6564   10.6716 C.ar    1  UNL1       -0.0046
     28 C          64.7840   91.9052   11.5621 C.ar    1  UNL1       -0.0046
     29 C          64.8010   91.3538   12.9570 C.ar    1  UNL1       -0.0221
     30 C          63.6368   90.5535   13.4614 C.ar    1  UNL1       -0.0046
     31 C          62.4556   90.3048   12.5708 C.ar    1  UNL1       -0.0046
     32 C          65.9822   91.6025   13.8474 C.3     1  UNL1        0.0302
     33 C          66.4697   93.0031   14.0728 C.3     1  UNL1        0.0520
     34 C          66.3075   94.0359   12.9972 C.3     1  UNL1        0.2058
     35 O          67.2959   94.1077   11.8712 O.3     1  UNL1       -0.4737
     36 C          66.9242   94.7928   10.5895 C.ar    1  UNL1        0.1594
     37 C          67.2392   94.1447    9.2739 C.ar    1  UNL1        0.0921
     38 CL         67.9259   92.8115    9.2400 Cl      1  UNL1       -0.0791
     39 C          66.8675   94.8298    7.9923 C.ar    1  UNL1        0.0103
     40 C          66.1808   96.1630    8.0263 C.ar    1  UNL1       -0.0200
     41 C          65.8092   96.8481    6.7447 C.3     1  UNL1        0.0311
     42 C          65.8658   96.8111    9.3419 C.ar    1  UNL1        0.0103
     43 C          66.2375   96.1260   10.6235 C.ar    1  UNL1        0.0921
     44 CL         65.9226   96.7740   11.9391 Cl      1  UNL1       -0.0791
@<TRIPOS>BOND
     1    23    24    1
     2    24    22    1
     3    22    21    1
     4    21    20    1
     5    20    13    1
     6    13    14   ar
     7    14    15   ar
     8    15    16   ar
     9    16    17    1
    10    16    18   ar
    11    18    12    1
    12    12     6    1
    13     6     7   am
    14     7     8    2
    15     7     1    1
    16     1     2    1
    17     2     3    1
    18     1    25    1
    19    25    26    1
    20    26    27   ar
    21    27    28   ar
    22    28    29   ar
    23    29    32    1
    24    32    33    1
    25    33    34    1
    26    34    35    1
    27    35    36    1
    28    36    37   ar
    29    37    38    1
    30    37    39   ar
    31    39    40   ar
    32    40    41    1
    33    40    42   ar
    34    42    43   ar
    35    43    44    1
    36    29    30   ar
    37    30    31   ar
    38     6     9    1
    39     9    10    1
    40    10    11    1
    41    18    19   ar
    42    19    13   ar
    43    31    26   ar
    44    11     9    1
    45    43    36   ar
    46     3     4    1
    47     3     5    1
@<TRIPOS>MOLECULE
*****
 44 47 0 0 0
SMALL
GASTEIGER

@<TRIPOS>ATOM
      1 C          62.9237   86.0393   16.4898 C.3     1  UNL1        0.0965
      2 C          62.4143   85.9797   17.8994 C.3     1  UNL1        0.0746
      3 N          62.7123   87.0990   18.8524 N.3     1  UNL1       -0.3207
      4 H          63.7153   87.1323   19.0347 H       1  UNL1        0.1189
      5 H          62.2127   86.9423   19.7278 H       1  UNL1        0.1189
      6 N          63.0935   84.4050   14.4772 N.am    1  UNL1       -0.2770
      7 C          62.2615   85.2253   15.4179 C.2     1  UNL1        0.2270
      8 O          60.7673   85.2316   15.2867 O.2     1  UNL1       -0.2748
      9 C          64.5878   84.3987   14.6085 C.3     1  UNL1        0.0758
     10 C          65.8388   83.8029   15.1828 C.3     1  UNL1        0.0215
     11 C          65.9248   84.9834   14.2615 C.3     1  UNL1        0.0215
     12 C          62.4313   83.5910   13.4054 C.3     1  UNL1        0.1209
     13 C          62.6935   85.1944    9.7845 C.ar    1  UNL1       -0.0223
     14 C          63.5722   84.1936    9.0943 C.ar    1  UNL1       -0.0034
     15 C          64.0705   82.9919    9.8411 C.ar    1  UNL1        0.0108
     16 C          63.6903   82.7911   11.2781 C.ar    1  UNL1        0.0553
     17 CL         64.1886   81.5894   12.0249 Cl      1  UNL1       -0.0825
     18 C          62.8116   83.7919   11.9683 C.ar    1  UNL1        0.0079
     19 C          62.3133   84.9935   11.2215 C.ar    1  UNL1       -0.0060
     20 C          62.1952   86.3960    9.0377 C.3     1  UNL1        0.0289
     21 C          60.8380   86.3727    8.3994 C.3     1  UNL1        0.0367
     22 C          59.8609   87.4771    8.6740 C.3     1  UNL1        0.1426
     23 C          59.1645   89.2173    6.8749 C.3     1  UNL1        0.1741
     24 O          60.0414   88.8170    8.0241 O.3     1  UNL1       -0.3511
     25 C          64.0955   86.9128   16.1521 C.3     1  UNL1        0.0368
     26 C          63.9443   88.0139   15.1449 C.ar    1  UNL1       -0.0217
     27 C          63.9251   89.4447   15.5950 C.ar    1  UNL1       -0.0046
     28 C          63.7740   90.5458   14.5878 C.ar    1  UNL1       -0.0046
     29 C          63.6421   90.2163   13.1303 C.ar    1  UNL1       -0.0221
     30 C          63.6614   88.7856   12.6802 C.ar    1  UNL1       -0.0046
     31 C          63.8125   87.6844   13.6875 C.ar    1  UNL1       -0.0046
     32 C          63.4910   91.3175   12.1231 C.3     1  UNL1        0.0302
     33 C          64.7024   92.0446   11.6193 C.3     1  UNL1        0.0520
     34 C          65.5232   92.8761   12.5600 C.3     1  UNL1        0.2058
     35 O          66.8408   93.4356   12.1118 O.3     1  UNL1       -0.4737
     36 C          66.9132   94.2895   10.8807 C.ar    1  UNL1        0.1594
     37 C          67.3825   93.6983    9.5844 C.ar    1  UNL1        0.0921
     38 CL         67.7794   92.2532    9.5193 Cl      1  UNL1       -0.0791
     39 C          67.4549   94.5522    8.3533 C.ar    1  UNL1        0.0103
     40 C          67.0580   95.9973    8.4184 C.ar    1  UNL1       -0.0200
     41 C          67.1304   96.8511    7.1873 C.3     1  UNL1        0.0311
     42 C          66.5886   96.5885    9.7146 C.ar    1  UNL1        0.0103
     43 C          66.5163   95.7346   10.9458 C.ar    1  UNL1        0.0921
     44 CL         66.0469   96.3257   12.2420 Cl      1  UNL1       -0.0791
@<TRIPOS>BOND
     1    23    24    1
     2    24    22    1
     3    22    21    1
     4    21    20    1
     5    20    13    1
     6    13    14   ar
     7    14    15   ar
     8    15    16   ar
     9    16    17    1
    10    16    18   ar
    11    18    12    1
    12    12     6    1
    13     6     7   am
    14     7     8    2
    15     7     1    1
    16     1     2    1
    17     2     3    1
    18     1    25    1
    19    25    26    1
    20    26    27   ar
    21    27    28   ar
    22    28    29   ar
    23    29    32    1
    24    32    33    1
    25    33    34    1
    26    34    35    1
    27    35    36    1
    28    36    37   ar
    29    37    38    1
    30    37    39   ar
    31    39    40   ar
    32    40    41    1
    33    40    42   ar
    34    42    43   ar
    35    43    44    1
    36    29    30   ar
    37    30    31   ar
    38     6     9    1
    39     9    10    1
    40    10    11    1
    41    18    19   ar
    42    19    13   ar
    43    31    26   ar
    44    11     9    1
    45    43    36   ar
    46     3     4    1
    47     3     5    1
@<TRIPOS>MOLECULE
*****
 44 47 0 0 0
SMALL
GASTEIGER

@<TRIPOS>ATOM
      1 C          60.2476   88.8656    8.5508 C.3     1  UNL1        0.0965
      2 C          60.4856   90.1896    9.2145 C.3     1  UNL1        0.0746
      3 N          61.8806   90.6090    9.5724 N.3     1  UNL1       -0.3207
      4 H          62.2479   89.9881   10.2935 H       1  UNL1        0.1189
      5 H          61.8683   91.5669    9.9225 H       1  UNL1        0.1189
      6 N          60.8638   87.3319   10.5554 N.am    1  UNL1       -0.2770
      7 C          60.9072   87.6291    9.0857 C.2     1  UNL1        0.2270
      8 O          61.6101   86.6899    8.1510 O.2     1  UNL1       -0.2748
      9 C          60.1608   88.2712   11.4901 C.3     1  UNL1        0.0758
     10 C          60.1983   89.4443   12.4241 C.3     1  UNL1        0.0215
     11 C          58.9058   88.7249   12.1750 C.3     1  UNL1        0.0215
     12 C          61.5234   86.0955   11.0903 C.3     1  UNL1        0.1209
     13 C          63.9992   87.6481   13.7753 C.ar    1  UNL1       -0.0223
     14 C          64.4927   86.4065   14.4571 C.ar    1  UNL1       -0.0034
     15 C          63.9965   85.0613   14.0167 C.ar    1  UNL1        0.0108
     16 C          63.0067   84.9576   12.8944 C.ar    1  UNL1        0.0553
     17 CL         62.5104   83.6123   12.4540 Cl      1  UNL1       -0.0825
     18 C          62.5132   86.1991   12.2126 C.ar    1  UNL1        0.0079
     19 C          63.0095   87.5444   12.6530 C.ar    1  UNL1       -0.0060
     20 C          64.4955   88.9934   14.2158 C.3     1  UNL1        0.0289
     21 C          63.6384   90.2091   14.0224 C.3     1  UNL1        0.0367
     22 C          64.0150   91.2369   12.9969 C.3     1  UNL1        0.1426
     23 C          66.3721   92.3298   12.9988 C.3     1  UNL1        0.1741
     24 O          64.9197   92.3734   13.3711 O.3     1  UNL1       -0.3511
     25 C          59.3499   88.7781    7.3523 C.3     1  UNL1        0.0368
     26 C          59.3910   89.8507    6.3045 C.ar    1  UNL1       -0.0217
     27 C          60.6945   90.2214    5.6615 C.ar    1  UNL1       -0.0046
     28 C          60.7357   91.2939    4.6137 C.ar    1  UNL1       -0.0046
     29 C          59.4733   91.9958    4.2089 C.ar    1  UNL1       -0.0221
     30 C          58.1698   91.6251    4.8519 C.ar    1  UNL1       -0.0046
     31 C          58.1287   90.5525    5.8997 C.ar    1  UNL1       -0.0046
     32 C          59.5145   93.0684    3.1611 C.3     1  UNL1        0.0302
     33 C          60.7132   93.1998    2.2690 C.3     1  UNL1        0.0520
     34 C          60.5821   92.9529    0.7954 C.3     1  UNL1        0.2058
     35 O          61.7760   92.5169   -0.0012 O.3     1  UNL1       -0.4737
     36 C          62.7602   93.5352   -0.4957 C.ar    1  UNL1        0.1594
     37 C          62.5227   94.2361   -1.8004 C.ar    1  UNL1        0.0921
     38 CL         61.3009   93.9187   -2.6107 Cl      1  UNL1       -0.0791
     39 C          63.5068   95.2544   -2.2948 C.ar    1  UNL1        0.0103
     40 C          64.7286   95.5718   -1.4845 C.ar    1  UNL1       -0.0200
     41 C          65.7128   96.5900   -1.9789 C.3     1  UNL1        0.0311
     42 C          64.9662   94.8709   -0.1798 C.ar    1  UNL1        0.0103
     43 C          63.9819   93.8526    0.3147 C.ar    1  UNL1        0.0921
     44 CL         64.2195   93.1517    1.6194 Cl      1  UNL1       -0.0791
@<TRIPOS>BOND
     1    23    24    1
     2    24    22    1
     3    22    21    1
     4    21    20    1
     5    20    13    1
     6    13    14   ar
     7    14    15   ar
     8    15    16   ar
     9    16    17    1
    10    16    18   ar
    11    18    12    1
    12    12     6    1
    13     6     7   am
    14     7     8    2
    15     7     1    1
    16     1     2    1
    17     2     3    1
    18     1    25    1
    19    25    26    1
    20    26    27   ar
    21    27    28   ar
    22    28    29   ar
    23    29    32    1
    24    32    33    1
    25    33    34    1
    26    34    35    1
    27    35    36    1
    28    36    37   ar
    29    37    38    1
    30    37    39   ar
    31    39    40   ar
    32    40    41    1
    33    40    42   ar
    34    42    43   ar
    35    43    44    1
    36    29    30   ar
    37    30    31   ar
    38     6     9    1
    39     9    10    1
    40    10    11    1
    41    18    19   ar
    42    19    13   ar
    43    31    26   ar
    44    11     9    1
    45    43    36   ar
    46     3     4    1
    47     3     5    1
@<TRIPOS>MOLECULE
*****
 44 47 0 0 0
SMALL
GASTEIGER

@<TRIPOS>ATOM
      1 C          60.2270   88.8828    8.5206 C.3     1  UNL1        0.0965
      2 C          60.5419   90.1985    9.1686 C.3     1  UNL1        0.0746
      3 N          61.9602   90.5444    9.5132 N.3     1  UNL1       -0.3207
      4 H          62.2978   89.9117   10.2386 H       1  UNL1        0.1189
      5 H          62.0028   91.5051    9.8532 H       1  UNL1        0.1189
      6 N          60.7779   87.3160   10.5186 N.am    1  UNL1       -0.2770
      7 C          60.8389   87.6201    9.0510 C.2     1  UNL1        0.2270
      8 O          61.5118   86.6615    8.1138 O.2     1  UNL1       -0.2748
      9 C          60.1050   88.2746   11.4558 C.3     1  UNL1        0.0758
     10 C          60.1698   89.4727   12.3560 C.3     1  UNL1        0.0215
     11 C          58.8748   88.7369   12.1789 C.3     1  UNL1        0.0215
     12 C          61.3897   86.0533   11.0490 C.3     1  UNL1        0.1209
     13 C          63.9443   87.5157   13.7109 C.ar    1  UNL1       -0.0223
     14 C          64.4972   86.2509   14.2977 C.ar    1  UNL1       -0.0034
     15 C          64.0143   84.9202   13.8016 C.ar    1  UNL1        0.0108
     16 C          62.9785   84.8543   12.7188 C.ar    1  UNL1        0.0553
     17 CL         62.4957   83.5236   12.2227 Cl      1  UNL1       -0.0825
     18 C          62.4256   86.1192   12.1319 C.ar    1  UNL1        0.0079
     19 C          62.9085   87.4499   12.6280 C.ar    1  UNL1       -0.0060
     20 C          64.4272   88.8464   14.2069 C.3     1  UNL1        0.0289
     21 C          63.5030   89.7384   14.9817 C.3     1  UNL1        0.0367
     22 C          63.1720   89.4170   16.4089 C.3     1  UNL1        0.1426
     23 C          62.8215   87.0405   17.3986 C.3     1  UNL1        0.1741
     24 O          62.2685   88.2628   16.7277 O.3     1  UNL1       -0.3511
     25 C          59.3003   88.8298    7.3423 C.3     1  UNL1        0.0368
     26 C          59.3650   89.8955    6.2888 C.ar    1  UNL1       -0.0217
     27 C          58.1146   90.6065    5.8635 C.ar    1  UNL1       -0.0046
     28 C          58.1792   91.6722    4.8099 C.ar    1  UNL1       -0.0046
     29 C          59.4944   92.0269    4.1816 C.ar    1  UNL1       -0.0221
     30 C          60.7448   91.3159    4.6069 C.ar    1  UNL1       -0.0046
     31 C          60.6801   90.2501    5.6605 C.ar    1  UNL1       -0.0046
     32 C          59.5590   93.0926    3.1280 C.3     1  UNL1        0.0302
     33 C          60.4008   92.8868    1.9037 C.3     1  UNL1        0.0520
     34 C          61.7063   93.6115    1.7605 C.3     1  UNL1        0.2058
     35 O          61.8692   94.6613    0.7016 O.3     1  UNL1       -0.4737
     36 C          62.2626   94.2670   -0.6912 C.ar    1  UNL1        0.1594
     37 C          63.7037   94.0105   -1.0192 C.ar    1  UNL1        0.0921
     38 CL         64.7513   94.1483    0.0455 Cl      1  UNL1       -0.0791
     39 C          64.0971   93.6163   -2.4119 C.ar    1  UNL1        0.0103
     40 C          63.0495   93.4785   -3.4767 C.ar    1  UNL1       -0.0200
     41 C          63.4429   93.0842   -4.8694 C.3     1  UNL1        0.0311
     42 C          61.6085   93.7350   -3.1486 C.ar    1  UNL1        0.0103
     43 C          61.2150   94.1293   -1.7558 C.ar    1  UNL1        0.0921
     44 CL         59.7740   94.3858   -1.4278 Cl      1  UNL1       -0.0791
@<TRIPOS>BOND
     1    23    24    1
     2    24    22    1
     3    22    21    1
     4    21    20    1
     5    20    13    1
     6    13    14   ar
     7    14    15   ar
     8    15    16   ar
     9    16    17    1
    10    16    18   ar
    11    18    12    1
    12    12     6    1
    13     6     7   am
    14     7     8    2
    15     7     1    1
    16     1     2    1
    17     2     3    1
    18     1    25    1
    19    25    26    1
    20    26    27   ar
    21    27    28   ar
    22    28    29   ar
    23    29    32    1
    24    32    33    1
    25    33    34    1
    26    34    35    1
    27    35    36    1
    28    36    37   ar
    29    37    38    1
    30    37    39   ar
    31    39    40   ar
    32    40    41    1
    33    40    42   ar
    34    42    43   ar
    35    43    44    1
    36    29    30   ar
    37    30    31   ar
    38     6     9    1
    39     9    10    1
    40    10    11    1
    41    18    19   ar
    42    19    13   ar
    43    31    26   ar
    44    11     9    1
    45    43    36   ar
    46     3     4    1
    47     3     5    1
