@<TRIPOS>MOLECULE
*****
 54 61 0 0 0
SMALL
GASTEIGER

@<TRIPOS>ATOM
      1 C          59.8700   89.6673    6.8833 C.3     1  UNL1        0.1445
      2 C          58.5525   90.2205    6.4269 C.3     1  UNL1        0.0322
      3 C          58.4899   91.1096    5.2203 C.3     1  UNL1        0.0049
      4 C          57.1724   91.6628    4.7641 C.3     1  UNL1        0.0002
      5 C          59.7447   91.4454    4.4702 C.3     1  UNL1        0.0298
      6 C          61.0621   90.8922    4.9266 C.3     1  UNL1        0.1418
      7 O          61.1248   90.0031    6.1331 O.3     1  UNL1       -0.3537
      8 C          62.1238   91.3938    3.9932 C.3     1  UNL1        0.1373
      9 O          63.5895   91.0862    4.0781 O.3     1  UNL1       -0.3820
     10 C          61.4626   92.2570    2.9600 C.3     1  UNL1        0.0272
     11 C          62.9476   92.1315    2.7904 C.3     1  UNL1        0.0025
     12 C          62.0093   93.0181    1.7888 C.3     1  UNL1        0.0023
     13 C          63.4797   92.9862    1.4940 C.3     1  UNL1        0.0001
     14 C          64.0265   93.7474    0.3228 C.3     1  UNL1        0.0001
     15 C          63.1029   94.5404   -0.5536 C.3     1  UNL1        0.0023
     16 C          63.6497   95.3015   -1.7248 C.3     1  UNL1        0.0251
     17 C          64.6362   95.8538   -2.7105 C.3     1  UNL1        0.0024
     18 C          64.9159   94.7003   -1.1907 C.3     1  UNL1        0.0024
     19 C          62.7260   96.0946   -2.6012 C.3     1  UNL1        0.1177
     20 C          61.2557   96.1264   -2.3064 C.3     1  UNL1        0.0296
     21 C          60.7089   95.3653   -1.1352 C.3     1  UNL1        0.0025
     22 C          61.6325   94.5723   -0.2588 C.3     1  UNL1        0.0002
     23 C          60.1621   94.6042    0.0360 C.3     1  UNL1        0.0000
     24 C          61.0857   93.8112    0.9124 C.3     1  UNL1        0.0001
     25 C          59.6153   93.8430    1.2072 C.3     1  UNL1        0.0000
     26 C          59.0685   93.0819    2.3784 C.3     1  UNL1        0.0002
     27 C          59.9921   92.2889    3.2548 C.3     1  UNL1        0.0046
     28 C          58.5525   92.2268    3.6716 C.3     1  UNL1        0.0002
     29 H          64.0563   91.5342    3.3554 H       1  UNL1        0.2104
     30 C          59.9326   88.7782    8.0898 C.3     1  UNL1        0.1664
     31 C          60.3936   87.3575    7.9514 C.3     1  UNL1        0.1156
     32 C          59.2013   87.0542    7.0932 C.3     1  UNL1        0.0319
     33 C          61.5859   87.6608    8.8096 C.3     1  UNL1        0.0319
     34 O          60.8546   85.9368    7.8131 O.3     1  UNL1       -0.3843
     35 H          60.2271   85.4457    7.2600 H       1  UNL1        0.2103
     36 O          59.5343   89.3099    9.4346 O.3     1  UNL1       -0.3514
     37 C          60.6419   90.0678   11.6592 C.3     1  UNL1        0.0346
     38 C          60.4548   90.2304   10.1798 C.3     1  UNL1        0.1423
     39 O          63.2728   96.8557   -3.7724 O.3     1  UNL1       -0.3320
     40 C          63.9845   96.1276   -4.8739 C.3     1  UNL1        0.2518
     41 C          63.6040   94.7155   -5.2076 C.3     1  UNL1        0.1343
     42 N          64.3156   93.9873   -6.3091 N.3     1  UNL1       -0.2663
     43 C          65.4078   94.6712   -7.0769 C.3     1  UNL1        0.1048
     44 C          65.7883   96.0832   -6.7433 C.3     1  UNL1        0.1621
     45 O          65.0766   96.8114   -5.6417 O.3     1  UNL1       -0.3280
     46 C          63.9351   92.5753   -6.6428 C.3     1  UNL1        0.0751
     47 C          65.0011   91.5548   -6.9115 C.3     1  UNL1        0.0479
     48 C          65.0119   90.1321   -7.3867 C.3     1  UNL1        0.0749
     49 N          66.5087   90.1117   -7.2916 N.3     1  UNL1       -0.2704
     50 C          66.4980   91.5344   -6.8164 C.3     1  UNL1        0.0749
     51 C          67.5747   89.0912   -7.5603 C.3     1  UNL1        0.1046
     52 C          67.9062   88.0614   -6.5212 C.3     1  UNL1        0.1595
     53 O          67.4636   86.6401   -6.7059 O.3     1  UNL1       -0.3496
     54 C          68.3383   85.5153   -6.2372 C.3     1  UNL1        0.1742
@<TRIPOS>BOND
     1    37    38    1
     2    38    36    1
     3    30    36    1
     4    30     1    1
     5     1     2    1
     6     2     3    1
     7     3     4    1
     8     5     3    1
     9     5     6    1
    10     6     7    1
    11     6     8    1
    12     8     9    1
    13     8    10    1
    14    10    11    1
    15    10    12    1
    16    12    13    1
    17    13    14    1
    18    15    14    1
    19    15    16    1
    20    16    17    1
    21    16    18    1
    22    16    19    1
    23    19    39    1
    24    40    39    1
    25    40    41    1
    26    41    42    1
    27    42    46    1
    28    46    47    1
    29    47    48    1
    30    48    49    1
    31    49    51    1
    32    51    52    1
    33    52    53    1
    34    53    54    1
    35    49    50    1
    36    42    43    1
    37    43    44    1
    38    44    45    1
    39    19    20    1
    40    20    21    1
    41    22    21    1
    42    22    23    1
    43    24    23    1
    44    24    25    1
    45    25    26    1
    46    26    27    1
    47    27    28    1
    48    30    31    1
    49    31    32    1
    50    31    33    1
    51    31    34    1
    52     7     1    1
    53    27    10    1
    54    27     5    1
    55    24    12    1
    56    22    15    1
    57    45    40    1
    58    24    22    1
    59    50    47    1
    60     9    29    1
    61    34    35    1
@<TRIPOS>MOLECULE
*****
 54 61 0 0 0
SMALL
GASTEIGER

@<TRIPOS>ATOM
      1 C          63.6491   94.6365   -4.7629 C.3     1  UNL1        0.1445
      2 C          62.1760   94.8613   -4.9347 C.3     1  UNL1        0.0322
      3 C          61.2316   94.5317   -3.8168 C.3     1  UNL1        0.0049
      4 C          59.7586   94.7565   -3.9886 C.3     1  UNL1        0.0002
      5 C          61.7604   93.9774   -2.5271 C.3     1  UNL1        0.0298
      6 C          63.2335   93.7526   -2.3554 C.3     1  UNL1        0.1418
      7 O          64.1778   94.0821   -3.4732 O.3     1  UNL1       -0.3537
      8 C          63.4605   93.1978   -0.9804 C.3     1  UNL1        0.1373
      9 O          64.7873   92.8263   -0.3875 O.3     1  UNL1       -0.3820
     10 C          62.1277   93.0797   -0.3023 C.3     1  UNL1        0.0272
     11 C          63.2835   92.6299    0.5414 C.3     1  UNL1        0.0025
     12 C          61.7351   92.5957    1.0621 C.3     1  UNL1        0.0023
     13 C          62.7858   92.1139    2.0180 C.3     1  UNL1        0.0001
     14 C          62.3931   91.6299    3.3824 C.3     1  UNL1        0.0001
     15 C          60.9499   91.6277    3.7909 C.3     1  UNL1        0.0023
     16 C          60.5572   91.1437    5.1553 C.3     1  UNL1        0.0251
     17 C          60.6808   90.5942    6.5455 C.3     1  UNL1        0.0024
     18 C          62.0435   90.9550    5.2296 C.3     1  UNL1        0.0024
     19 C          59.1139   91.1415    5.5637 C.3     1  UNL1        0.1177
     20 C          58.0632   91.6233    4.6077 C.3     1  UNL1        0.0296
     21 C          58.4558   92.1073    3.2433 C.3     1  UNL1        0.0025
     22 C          59.8991   92.1095    2.8349 C.3     1  UNL1        0.0002
     23 C          58.8484   92.5913    1.8789 C.3     1  UNL1        0.0000
     24 C          60.2917   92.5935    1.4705 C.3     1  UNL1        0.0001
     25 C          59.2411   93.0753    0.5145 C.3     1  UNL1        0.0000
     26 C          59.6337   93.5593   -0.8499 C.3     1  UNL1        0.0002
     27 C          61.0770   93.5615   -1.2583 C.3     1  UNL1        0.0046
     28 C          60.1428   94.0700   -2.3160 C.3     1  UNL1        0.0002
     29 H          64.6566   92.4927    0.5139 H       1  UNL1        0.2104
     30 C          64.5934   94.9660   -5.8808 C.3     1  UNL1        0.1664
     31 C          65.3977   93.8780   -6.5285 C.3     1  UNL1        0.1156
     32 C          64.3119   92.8907   -6.2183 C.3     1  UNL1        0.0319
     33 C          66.4835   94.8653   -6.8388 C.3     1  UNL1        0.0319
     34 O          66.2019   92.7900   -7.1763 O.3     1  UNL1       -0.3843
     35 H          65.7132   91.9536   -7.1267 H       1  UNL1        0.2103
     36 O          64.7335   96.3835   -6.3509 O.3     1  UNL1       -0.3514
     37 C          62.4799   96.8421   -7.5593 C.3     1  UNL1        0.0346
     38 C          63.9798   96.8503   -7.5608 C.3     1  UNL1        0.1423
     39 O          58.7212   90.6575    6.9281 O.3     1  UNL1       -0.3320
     40 C          59.1729   89.3087    7.4041 C.3     1  UNL1        0.2518
     41 C          59.7626   89.1558    8.7749 C.3     1  UNL1        0.1343
     42 N          60.2142   87.8070    9.2509 N.3     1  UNL1       -0.2663
     43 C          60.0762   86.6110    8.3562 C.3     1  UNL1        0.1048
     44 C          59.4866   86.7638    6.9855 C.3     1  UNL1        0.1621
     45 O          59.0349   88.1126    6.5094 O.3     1  UNL1       -0.3280
     46 C          60.8039   87.6542   10.6216 C.3     1  UNL1        0.0751
     47 C          61.7495   88.6912   11.1512 C.3     1  UNL1        0.0479
     48 C          61.8269   90.1878   11.0869 C.3     1  UNL1        0.0749
     49 N          63.0868   90.1577   11.9001 N.3     1  UNL1       -0.2704
     50 C          63.0096   88.6611   11.9645 C.3     1  UNL1        0.0749
     51 C          64.0325   91.1947   12.4296 C.3     1  UNL1        0.1046
     52 C          64.5216   91.1106   13.8452 C.3     1  UNL1        0.1595
     53 O          63.5471   91.2003   14.9819 O.3     1  UNL1       -0.3496
     54 C          63.4091   90.0573   15.9434 C.3     1  UNL1        0.1742
@<TRIPOS>BOND
     1    37    38    1
     2    38    36    1
     3    30    36    1
     4    30     1    1
     5     1     2    1
     6     2     3    1
     7     3     4    1
     8     5     3    1
     9     5     6    1
    10     6     7    1
    11     6     8    1
    12     8     9    1
    13     8    10    1
    14    10    11    1
    15    10    12    1
    16    12    13    1
    17    13    14    1
    18    15    14    1
    19    15    16    1
    20    16    17    1
    21    16    18    1
    22    16    19    1
    23    19    39    1
    24    40    39    1
    25    40    41    1
    26    41    42    1
    27    42    46    1
    28    46    47    1
    29    47    48    1
    30    48    49    1
    31    49    51    1
    32    51    52    1
    33    52    53    1
    34    53    54    1
    35    49    50    1
    36    42    43    1
    37    43    44    1
    38    44    45    1
    39    19    20    1
    40    20    21    1
    41    22    21    1
    42    22    23    1
    43    24    23    1
    44    24    25    1
    45    25    26    1
    46    26    27    1
    47    27    28    1
    48    30    31    1
    49    31    32    1
    50    31    33    1
    51    31    34    1
    52     7     1    1
    53    27    10    1
    54    27     5    1
    55    24    12    1
    56    22    15    1
    57    45    40    1
    58    24    22    1
    59    50    47    1
    60     9    29    1
    61    34    35    1
