@<TRIPOS>MOLECULE
*****
 32 35 0 0 0
SMALL
GASTEIGER

@<TRIPOS>ATOM
      1 C          65.4146   92.0035   12.7731 C.3     1  UNL1        0.1092
      2 C          65.6920   92.9357   11.6311 C.3     1  UNL1        0.1598
      3 O          64.8298   92.8962   10.4043 O.3     1  UNL1       -0.3507
      4 C          63.6903   91.9245   10.3194 C.3     1  UNL1        0.1634
      5 C          63.4129   90.9923   11.4613 C.3     1  UNL1        0.1455
      6 N          64.2751   91.0318   12.6882 N.3     1  UNL1       -0.1499
      7 C          66.1581   93.1864   14.9635 C.3     1  UNL1        0.0015
      8 C          66.2768   92.0430   13.9999 C.3     1  UNL1        0.0189
      9 C          67.2576   90.9391   14.2632 C.3     1  UNL1        0.0015
     10 C          62.2734   90.0205   11.3764 C.3     1  UNL1        0.1550
     11 C          60.9375   89.3886   11.6340 C.3     1  UNL1        0.0453
     12 C          61.3123   90.6618   12.3332 C.3     1  UNL1        0.0453
     13 O          62.8387   89.0418   10.3903 O.3     1  UNL1       -0.4403
     14 C          62.1036   87.7688   10.0916 C.2     1  UNL1        0.4048
     15 O          62.5136   86.4911   10.7619 O.2     1  UNL1       -0.2262
     16 N          60.9586   87.7736    9.1226 N.am    1  UNL1       -0.2432
     17 C          60.5486   89.0513    8.4523 C.3     1  UNL1        0.1138
     18 C          59.4036   89.0560    7.4833 C.3     1  UNL1        0.0905
     19 N          58.6686   87.7831    7.1846 N.3     1  UNL1       -0.2946
     20 C          59.0785   86.5054    7.8549 C.3     1  UNL1        0.0905
     21 C          60.2235   86.5006    8.8239 C.3     1  UNL1        0.1138
     22 H          58.7468   87.6268    6.1797 H       1  UNL1        0.1233
     23 S          63.9977   90.0995   13.8301 S.O2    1  UNL1        0.0635
     24 O          63.5203   91.2557   14.6579 O.2     1  UNL1       -0.1528
     25 O          64.3541   88.8869   13.3558 O.2     1  UNL1       -0.1528
     26 C          63.7203   89.1673   14.9720 C.ar    1  UNL1        0.1223
     27 C          63.1031   89.6912   16.2349 C.ar    1  UNL1        0.0208
     28 C          62.8257   88.7590   17.3769 C.ar    1  UNL1        0.0128
     29 C          63.1654   87.3030   17.2560 C.ar    1  UNL1        0.0578
     30 CL         62.8880   86.3708   18.3979 Cl      1  UNL1       -0.0822
     31 C          63.7825   86.7791   15.9932 C.ar    1  UNL1        0.0128
     32 C          64.0599   87.7113   14.8512 C.ar    1  UNL1        0.0208
@<TRIPOS>BOND
     1     7     8    1
     2     8     9    1
     3     1     8    1
     4     1     2    1
     5     2     3    1
     6     3     4    1
     7     4     5    1
     8     5    10    1
     9    10    13    1
    10    13    14    1
    11    14    15    2
    12    14    16   am
    13    16    17    1
    14    17    18    1
    15    18    19    1
    16    19    20    1
    17    20    21    1
    18    10    11    1
    19    11    12    1
    20     5     6    1
    21     6    23    1
    22    23    24    2
    23    23    25    2
    24    23    26    1
    25    26    27   ar
    26    27    28   ar
    27    28    29   ar
    28    29    30    1
    29    29    31   ar
    30    31    32   ar
    31     6     1    1
    32    32    26   ar
    33    12    10    1
    34    21    16    1
    35    19    22    1
@<TRIPOS>MOLECULE
*****
 32 35 0 0 0
SMALL
GASTEIGER

@<TRIPOS>ATOM
      1 C          63.7656   95.2131   -0.0268 C.3     1  UNL1        0.1092
      2 C          64.2616   96.0960   -1.1333 C.3     1  UNL1        0.1598
      3 O          63.2982   96.6468   -2.1425 O.3     1  UNL1       -0.3507
      4 C          61.8387   96.3147   -2.0452 C.3     1  UNL1        0.1634
      5 C          61.3427   95.4318   -0.9387 C.3     1  UNL1        0.1455
      6 N          62.3061   94.8810    0.0705 N.3     1  UNL1       -0.1499
      7 C          65.4367   93.3672    0.7147 C.3     1  UNL1        0.0015
      8 C          64.7290   94.6624    0.9823 C.3     1  UNL1        0.0189
      9 C          64.9848   95.4068    2.2592 C.3     1  UNL1        0.0015
     10 C          59.8831   95.0996   -0.8413 C.3     1  UNL1        0.1550
     11 C          58.4225   95.2429   -0.5314 C.3     1  UNL1        0.0453
     12 C          59.3730   96.3537   -0.1955 C.3     1  UNL1        0.0453
     13 O          59.8864   93.7301   -1.4533 O.3     1  UNL1       -0.4403
     14 C          59.4783   93.5476   -2.8852 C.2     1  UNL1        0.4048
     15 O          60.3266   94.1142   -3.9849 O.2     1  UNL1       -0.2262
     16 N          58.2219   92.7985   -3.2174 N.am    1  UNL1       -0.2432
     17 C          57.3736   92.2319   -2.1177 C.3     1  UNL1        0.1138
     18 C          56.1172   91.4828   -2.4499 C.3     1  UNL1        0.0905
     19 N          55.7091   91.3003   -3.8817 N.3     1  UNL1       -0.2946
     20 C          56.5574   91.8669   -4.9814 C.3     1  UNL1        0.0905
     21 C          57.8139   92.6160   -4.6492 C.3     1  UNL1        0.1138
     22 H          54.7833   91.7171   -3.9794 H       1  UNL1        0.1233
     23 S          61.8100   93.9980    1.1770 S.O2    1  UNL1        0.0635
     24 O          61.5105   95.2094    2.0093 O.2     1  UNL1       -0.1528
     25 O          61.9635   92.7479    0.6911 O.2     1  UNL1       -0.1528
     26 C          61.3139   93.1152    2.2835 C.ar    1  UNL1        0.1223
     27 C          59.8919   93.2232    2.7489 C.ar    1  UNL1        0.0208
     28 C          59.3958   92.3403    3.8554 C.ar    1  UNL1        0.0128
     29 C          60.3216   91.3494    4.4966 C.ar    1  UNL1        0.0578
     30 CL         59.8255   90.4665    5.6031 Cl      1  UNL1       -0.0822
     31 C          61.7435   91.2413    4.0312 C.ar    1  UNL1        0.0128
     32 C          62.2396   92.1242    2.9247 C.ar    1  UNL1        0.0208
@<TRIPOS>BOND
     1     7     8    1
     2     8     9    1
     3     1     8    1
     4     1     2    1
     5     2     3    1
     6     3     4    1
     7     4     5    1
     8     5    10    1
     9    10    13    1
    10    13    14    1
    11    14    15    2
    12    14    16   am
    13    16    17    1
    14    17    18    1
    15    18    19    1
    16    19    20    1
    17    20    21    1
    18    10    11    1
    19    11    12    1
    20     5     6    1
    21     6    23    1
    22    23    24    2
    23    23    25    2
    24    23    26    1
    25    26    27   ar
    26    27    28   ar
    27    28    29   ar
    28    29    30    1
    29    29    31   ar
    30    31    32   ar
    31     6     1    1
    32    32    26   ar
    33    12    10    1
    34    21    16    1
    35    19    22    1
@<TRIPOS>MOLECULE
*****
 32 35 0 0 0
SMALL
GASTEIGER

@<TRIPOS>ATOM
      1 C          65.2786   91.7515   12.7875 C.3     1  UNL1        0.1092
      2 C          65.5304   92.6302   11.5982 C.3     1  UNL1        0.1598
      3 O          64.6353   92.5421   10.3978 O.3     1  UNL1       -0.3507
      4 C          63.4885   91.5754   10.3866 C.3     1  UNL1        0.1634
      5 C          63.2367   90.6968   11.5759 C.3     1  UNL1        0.1455
      6 N          64.1318   90.7848   12.7764 N.3     1  UNL1       -0.1499
      7 C          67.6281   91.4939   13.8661 C.3     1  UNL1        0.0015
      8 C          66.1737   91.8396   13.9880 C.3     1  UNL1        0.0189
      9 C          65.6142   92.2733   15.3104 C.3     1  UNL1        0.0015
     10 C          62.0898   89.7300   11.5648 C.3     1  UNL1        0.1550
     11 C          60.6853   89.2100   11.4805 C.3     1  UNL1        0.0453
     12 C          60.9497   90.6808   11.3502 C.3     1  UNL1        0.0453
     13 O          62.8317   88.4434   11.7755 O.3     1  UNL1       -0.4403
     14 C          62.5767   87.2739   10.8714 C.2     1  UNL1        0.4048
     15 O          62.1526   87.5026    9.4509 O.2     1  UNL1       -0.2262
     16 N          62.7457   85.8759   11.3879 N.am    1  UNL1       -0.2432
     17 C          63.1699   85.6473   12.8084 C.3     1  UNL1        0.1138
     18 C          63.3389   84.2491   13.3249 C.3     1  UNL1        0.0905
     19 N          63.0839   83.0797   12.4209 N.3     1  UNL1       -0.2946
     20 C          62.6598   83.3082   11.0004 C.3     1  UNL1        0.0905
     21 C          62.4907   84.7064   10.4839 C.3     1  UNL1        0.1138
     22 H          62.3519   82.5218   12.8607 H       1  UNL1        0.1233
     23 S          63.8799   89.9061   13.9657 S.O2    1  UNL1        0.0635
     24 O          62.9337   90.9289   14.5210 O.2     1  UNL1       -0.1528
     25 O          64.6514   88.8215   13.7397 O.2     1  UNL1       -0.1528
     26 C          63.6280   89.0274   15.1550 C.ar    1  UNL1        0.1223
     27 C          63.9448   87.5628   15.0860 C.ar    1  UNL1        0.0208
     28 C          63.6929   86.6842   16.2753 C.ar    1  UNL1        0.0128
     29 C          63.1243   87.2700   17.5337 C.ar    1  UNL1        0.0578
     30 CL         62.8725   86.3914   18.7230 Cl      1  UNL1       -0.0822
     31 C          62.8076   88.7346   17.6027 C.ar    1  UNL1        0.0128
     32 C          63.0594   89.6133   16.4134 C.ar    1  UNL1        0.0208
@<TRIPOS>BOND
     1     7     8    1
     2     8     9    1
     3     1     8    1
     4     1     2    1
     5     2     3    1
     6     3     4    1
     7     4     5    1
     8     5    10    1
     9    10    13    1
    10    13    14    1
    11    14    15    2
    12    14    16   am
    13    16    17    1
    14    17    18    1
    15    18    19    1
    16    19    20    1
    17    20    21    1
    18    10    11    1
    19    11    12    1
    20     5     6    1
    21     6    23    1
    22    23    24    2
    23    23    25    2
    24    23    26    1
    25    26    27   ar
    26    27    28   ar
    27    28    29   ar
    28    29    30    1
    29    29    31   ar
    30    31    32   ar
    31     6     1    1
    32    32    26   ar
    33    12    10    1
    34    21    16    1
    35    19    22    1
@<TRIPOS>MOLECULE
*****
 32 35 0 0 0
SMALL
GASTEIGER

@<TRIPOS>ATOM
      1 C          63.1147   93.9488    1.0996 C.3     1  UNL1        0.1092
      2 C          64.4517   94.4250    1.5851 C.3     1  UNL1        0.1598
      3 O          65.2896   95.3182    0.7189 O.3     1  UNL1       -0.3507
      4 C          64.7904   95.7352   -0.6327 C.3     1  UNL1        0.1634
      5 C          63.4534   95.2591   -1.1181 C.3     1  UNL1        0.1455
      6 N          62.6156   94.3659   -0.2520 N.3     1  UNL1       -0.1499
      7 C          62.7054   91.6409    2.2203 C.3     1  UNL1        0.0015
      8 C          62.2769   93.0556    1.9658 C.3     1  UNL1        0.0189
      9 C          61.0105   93.5772    2.5774 C.3     1  UNL1        0.0015
     10 C          62.9542   95.6762   -2.4698 C.3     1  UNL1        0.1550
     11 C          62.2226   96.4525   -3.5243 C.3     1  UNL1        0.0453
     12 C          62.1116   96.8556   -2.0837 C.3     1  UNL1        0.0453
     13 O          63.6235   94.6416   -3.3252 O.3     1  UNL1       -0.4403
     14 C          64.6153   95.0597   -4.3700 C.2     1  UNL1        0.4048
     15 O          65.1594   96.4575   -4.3708 O.2     1  UNL1       -0.2262
     16 N          65.0629   94.0800   -5.4138 N.am    1  UNL1       -0.2432
     17 C          64.5188   92.6822   -5.4130 C.3     1  UNL1        0.1138
     18 C          64.9665   91.7025   -6.4570 C.3     1  UNL1        0.0905
     19 N          65.9582   92.1206   -7.5017 N.3     1  UNL1       -0.2946
     20 C          66.5024   93.5183   -7.5026 C.3     1  UNL1        0.0905
     21 C          66.0547   94.4981   -6.4586 C.3     1  UNL1        0.1138
     22 H          65.5099   91.9785   -8.4068 H       1  UNL1        0.1233
     23 S          61.2785   93.8898   -0.7375 S.O2    1  UNL1        0.0635
     24 O          61.9326   92.6966   -1.3687 O.2     1  UNL1       -0.1528
     25 O          60.4162   94.8281   -0.2920 O.2     1  UNL1       -0.1528
     26 C          59.9415   93.4137   -1.2230 C.ar    1  UNL1        0.1223
     27 C          59.7043   93.2135   -2.6906 C.ar    1  UNL1        0.0208
     28 C          58.3673   92.7373   -3.1761 C.ar    1  UNL1        0.0128
     29 C          57.2676   92.4614   -2.1941 C.ar    1  UNL1        0.0578
     30 CL         55.9306   91.9852   -2.6796 Cl      1  UNL1       -0.0822
     31 C          57.5047   92.6616   -0.7266 C.ar    1  UNL1        0.0128
     32 C          58.8418   93.1377   -0.2410 C.ar    1  UNL1        0.0208
@<TRIPOS>BOND
     1     7     8    1
     2     8     9    1
     3     1     8    1
     4     1     2    1
     5     2     3    1
     6     3     4    1
     7     4     5    1
     8     5    10    1
     9    10    13    1
    10    13    14    1
    11    14    15    2
    12    14    16   am
    13    16    17    1
    14    17    18    1
    15    18    19    1
    16    19    20    1
    17    20    21    1
    18    10    11    1
    19    11    12    1
    20     5     6    1
    21     6    23    1
    22    23    24    2
    23    23    25    2
    24    23    26    1
    25    26    27   ar
    26    27    28   ar
    27    28    29   ar
    28    29    30    1
    29    29    31   ar
    30    31    32   ar
    31     6     1    1
    32    32    26   ar
    33    12    10    1
    34    21    16    1
    35    19    22    1
@<TRIPOS>MOLECULE
*****
 32 35 0 0 0
SMALL
GASTEIGER

@<TRIPOS>ATOM
      1 C          63.7199   94.6902   -1.6150 C.3     1  UNL1        0.1092
      2 C          65.0117   95.1818   -1.0323 C.3     1  UNL1        0.1598
      3 O          65.0600   95.6586    0.3890 O.3     1  UNL1       -0.3507
      4 C          63.8165   95.6439    1.2277 C.3     1  UNL1        0.1634
      5 C          62.5247   95.1523    0.6450 C.3     1  UNL1        0.1455
      6 N          62.4764   94.6754   -0.7763 N.3     1  UNL1       -0.1499
      7 C          63.9166   92.7673   -3.3511 C.3     1  UNL1        0.0015
      8 C          63.6716   94.2133   -3.0364 C.3     1  UNL1        0.0189
      9 C          63.3784   95.1824   -4.1430 C.3     1  UNL1        0.0015
     10 C          61.2811   95.1376    1.4837 C.3     1  UNL1        0.1550
     11 C          60.1433   95.6328    2.3264 C.3     1  UNL1        0.0453
     12 C          61.1538   96.6012    1.7866 C.3     1  UNL1        0.0453
     13 O          60.9767   93.6688    1.4721 O.3     1  UNL1       -0.4403
     14 C          61.5322   92.7793    2.5446 C.2     1  UNL1        0.4048
     15 O          63.0053   92.5019    2.6004 O.2     1  UNL1       -0.2262
     16 N          60.6147   92.1671    3.5611 N.am    1  UNL1       -0.2432
     17 C          59.1416   92.4445    3.5053 C.3     1  UNL1        0.1138
     18 C          58.2241   91.8323    4.5219 C.3     1  UNL1        0.0905
     19 N          58.7796   90.9428    5.5943 N.3     1  UNL1       -0.2946
     20 C          60.2526   90.6654    5.6502 C.3     1  UNL1        0.0905
     21 C          61.1702   91.2776    4.6336 C.3     1  UNL1        0.1138
     22 H          58.3134   90.0406    5.4992 H       1  UNL1        0.1233
     23 S          61.1845   94.1838   -1.3590 S.O2    1  UNL1        0.0635
     24 O          60.7992   95.5941   -1.6943 O.2     1  UNL1       -0.1528
     25 O          61.2398   92.8452   -1.1930 O.2     1  UNL1       -0.1528
     26 C          59.8927   93.6923   -1.9416 C.ar    1  UNL1        0.1223
     27 C          59.6611   93.7666   -3.4218 C.ar    1  UNL1        0.0208
     28 C          58.3693   93.2751   -4.0045 C.ar    1  UNL1        0.0128
     29 C          57.3090   92.7092   -3.1070 C.ar    1  UNL1        0.0578
     30 CL         56.0172   92.2177   -3.6896 Cl      1  UNL1       -0.0822
     31 C          57.5405   92.6349   -1.6269 C.ar    1  UNL1        0.0128
     32 C          58.8324   93.1264   -1.0441 C.ar    1  UNL1        0.0208
@<TRIPOS>BOND
     1     7     8    1
     2     8     9    1
     3     1     8    1
     4     1     2    1
     5     2     3    1
     6     3     4    1
     7     4     5    1
     8     5    10    1
     9    10    13    1
    10    13    14    1
    11    14    15    2
    12    14    16   am
    13    16    17    1
    14    17    18    1
    15    18    19    1
    16    19    20    1
    17    20    21    1
    18    10    11    1
    19    11    12    1
    20     5     6    1
    21     6    23    1
    22    23    24    2
    23    23    25    2
    24    23    26    1
    25    26    27   ar
    26    27    28   ar
    27    28    29   ar
    28    29    30    1
    29    29    31   ar
    30    31    32   ar
    31     6     1    1
    32    32    26   ar
    33    12    10    1
    34    21    16    1
    35    19    22    1
@<TRIPOS>MOLECULE
*****
 32 35 0 0 0
SMALL
GASTEIGER

@<TRIPOS>ATOM
      1 C          62.4138   95.7400   -3.5215 C.3     1  UNL1        0.1092
      2 C          61.9776   96.5474   -4.7080 C.3     1  UNL1        0.1598
      3 O          60.5205   96.8238   -4.9325 O.3     1  UNL1       -0.3507
      4 C          59.4995   96.2928   -3.9705 C.3     1  UNL1        0.1634
      5 C          59.9356   95.4854   -2.7840 C.3     1  UNL1        0.1455
      6 N          61.3928   95.2090   -2.5595 N.3     1  UNL1       -0.1499
      7 C          64.6829   96.3787   -2.4293 C.3     1  UNL1        0.0015
      8 C          63.8709   95.4636   -3.2971 C.3     1  UNL1        0.0189
      9 C          64.5160   94.2720   -3.9403 C.3     1  UNL1        0.0015
     10 C          58.9146   94.9544   -1.8218 C.3     1  UNL1        0.1550
     11 C          57.8613   94.9324   -0.7541 C.3     1  UNL1        0.0453
     12 C          58.4669   96.2358   -1.1835 C.3     1  UNL1        0.0453
     13 O          59.0078   93.4885   -2.1261 O.3     1  UNL1       -0.4403
     14 C          57.7626   92.6997   -2.4043 C.2     1  UNL1        0.4048
     15 O          56.9908   92.0921   -1.2707 O.2     1  UNL1       -0.2262
     16 N          57.2893   92.5185   -3.8161 N.am    1  UNL1       -0.2432
     17 C          58.0611   93.1261   -4.9497 C.3     1  UNL1        0.1138
     18 C          57.5877   92.9449   -6.3615 C.3     1  UNL1        0.0905
     19 N          56.3427   92.1561   -6.6397 N.3     1  UNL1       -0.2946
     20 C          55.5708   91.5485   -5.5061 C.3     1  UNL1        0.0905
     21 C          56.0441   91.7297   -4.0942 C.3     1  UNL1        0.1138
     22 H          56.6113   91.3899   -7.2571 H       1  UNL1        0.1233
     23 S          61.8289   94.4015   -1.3729 S.O2    1  UNL1        0.0635
     24 O          61.7762   95.6318   -0.5164 O.2     1  UNL1       -0.1528
     25 O          61.9698   93.1514   -1.8625 O.2     1  UNL1       -0.1528
     26 C          62.2649   93.5941   -0.1864 C.ar    1  UNL1        0.1223
     27 C          61.2893   92.6869    0.5031 C.ar    1  UNL1        0.0208
     28 C          61.7254   91.8796    1.6896 C.ar    1  UNL1        0.0128
     29 C          63.1371   91.9793    2.1868 C.ar    1  UNL1        0.0578
     30 CL         63.5731   91.1719    3.3733 Cl      1  UNL1       -0.0822
     31 C          64.1127   92.8864    1.4974 C.ar    1  UNL1        0.0128
     32 C          63.6766   93.6939    0.3108 C.ar    1  UNL1        0.0208
@<TRIPOS>BOND
     1     7     8    1
     2     8     9    1
     3     1     8    1
     4     1     2    1
     5     2     3    1
     6     3     4    1
     7     4     5    1
     8     5    10    1
     9    10    13    1
    10    13    14    1
    11    14    15    2
    12    14    16   am
    13    16    17    1
    14    17    18    1
    15    18    19    1
    16    19    20    1
    17    20    21    1
    18    10    11    1
    19    11    12    1
    20     5     6    1
    21     6    23    1
    22    23    24    2
    23    23    25    2
    24    23    26    1
    25    26    27   ar
    26    27    28   ar
    27    28    29   ar
    28    29    30    1
    29    29    31   ar
    30    31    32   ar
    31     6     1    1
    32    32    26   ar
    33    12    10    1
    34    21    16    1
    35    19    22    1
@<TRIPOS>MOLECULE
*****
 32 35 0 0 0
SMALL
GASTEIGER

@<TRIPOS>ATOM
      1 C          63.4483   85.5341   12.7222 C.3     1  UNL1        0.1092
      2 C          64.3157   85.1864   13.8954 C.3     1  UNL1        0.1598
      3 O          64.8110   86.2684   14.8087 O.3     1  UNL1       -0.3507
      4 C          64.4388   87.6980   14.5488 C.3     1  UNL1        0.1634
      5 C          63.5714   88.0457   13.3755 C.3     1  UNL1        0.1455
      6 N          63.0761   86.9637   12.4622 N.3     1  UNL1       -0.1499
      7 C          63.2824   84.4963   10.3462 C.3     1  UNL1        0.0015
      8 C          62.9530   84.4522   11.8089 C.3     1  UNL1        0.0189
      9 C          62.1284   83.3261   12.3583 C.3     1  UNL1        0.0015
     10 C          63.1991   89.4753   13.1155 C.3     1  UNL1        0.1550
     11 C          62.3664   90.7186   13.0120 C.3     1  UNL1        0.0453
     12 C          61.7436   89.4353   13.4761 C.3     1  UNL1        0.0453
     13 O          64.5253   90.0118   12.6646 O.3     1  UNL1       -0.4403
     14 C          65.1253   91.2028   13.3515 C.2     1  UNL1        0.4048
     15 O          65.3401   91.1831   14.8359 O.2     1  UNL1       -0.2262
     16 N          65.5104   92.4134   12.5539 N.am    1  UNL1       -0.2432
     17 C          65.2956   92.4331   11.0695 C.3     1  UNL1        0.1138
     18 C          65.6808   93.6437   10.2720 C.3     1  UNL1        0.0905
     19 N          66.2807   94.8346   10.9588 N.3     1  UNL1       -0.2946
     20 C          66.4955   94.8150   12.4432 C.3     1  UNL1        0.0905
     21 C          66.1104   93.6043   13.2408 C.3     1  UNL1        0.1138
     22 H          65.6705   95.6274   10.7601 H       1  UNL1        0.1233
     23 S          62.2086   87.3114   11.2889 S.O2    1  UNL1        0.0635
     24 O          61.0547   86.6002   11.9313 O.2     1  UNL1       -0.1528
     25 O          63.0274   88.0083   10.4724 O.2     1  UNL1       -0.1528
     26 C          61.3411   87.6591   10.1157 C.ar    1  UNL1        0.1223
     27 C          61.1116   89.0963    9.7523 C.ar    1  UNL1        0.0208
     28 C          60.2441   89.4440    8.5791 C.ar    1  UNL1        0.0128
     29 C          59.6061   88.3546    7.7691 C.ar    1  UNL1        0.0578
     30 CL         58.7386   88.7023    6.5959 Cl      1  UNL1       -0.0822
     31 C          59.8355   86.9175    8.1324 C.ar    1  UNL1        0.0128
     32 C          60.7030   86.5697    9.3057 C.ar    1  UNL1        0.0208
@<TRIPOS>BOND
     1     7     8    1
     2     8     9    1
     3     1     8    1
     4     1     2    1
     5     2     3    1
     6     3     4    1
     7     4     5    1
     8     5    10    1
     9    10    13    1
    10    13    14    1
    11    14    15    2
    12    14    16   am
    13    16    17    1
    14    17    18    1
    15    18    19    1
    16    19    20    1
    17    20    21    1
    18    10    11    1
    19    11    12    1
    20     5     6    1
    21     6    23    1
    22    23    24    2
    23    23    25    2
    24    23    26    1
    25    26    27   ar
    26    27    28   ar
    27    28    29   ar
    28    29    30    1
    29    29    31   ar
    30    31    32   ar
    31     6     1    1
    32    32    26   ar
    33    12    10    1
    34    21    16    1
    35    19    22    1
@<TRIPOS>MOLECULE
*****
 32 35 0 0 0
SMALL
GASTEIGER

@<TRIPOS>ATOM
      1 C          60.8986   87.1456    8.1710 C.3     1  UNL1        0.1092
      2 C          60.1717   87.9476    7.1326 C.3     1  UNL1        0.1598
      3 O          59.5621   89.2690    7.4964 O.3     1  UNL1       -0.3507
      4 C          59.6794   89.7884    8.8987 C.3     1  UNL1        0.1634
      5 C          60.4064   88.9865    9.9371 C.3     1  UNL1        0.1455
      6 N          61.0160   87.6651    9.5733 N.3     1  UNL1       -0.1499
      7 C          60.6954   84.8005    7.0715 C.3     1  UNL1        0.0015
      8 C          61.5082   85.8243    7.8072 C.3     1  UNL1        0.0189
      9 C          62.9305   85.5267    8.1790 C.3     1  UNL1        0.0015
     10 C          60.5238   89.5059   11.3394 C.3     1  UNL1        0.1550
     11 C          60.2130   89.7324   12.7893 C.3     1  UNL1        0.0453
     12 C          59.3316   88.8429   11.9634 C.3     1  UNL1        0.0453
     13 O          61.7567   90.3492   11.2024 O.3     1  UNL1       -0.4403
     14 C          62.7202   90.4604   12.3466 C.2     1  UNL1        0.4048
     15 O          62.4248   89.7709   13.6456 O.2     1  UNL1       -0.2262
     16 N          63.9791   91.2611   12.1919 N.am    1  UNL1       -0.2432
     17 C          64.2745   91.9506   10.8930 C.3     1  UNL1        0.1138
     18 C          65.5335   92.7514   10.7383 C.3     1  UNL1        0.0905
     19 N          66.4970   92.8626   11.8824 N.3     1  UNL1       -0.2946
     20 C          66.2016   92.1731   13.1814 C.3     1  UNL1        0.0905
     21 C          64.9427   91.3723   13.3362 C.3     1  UNL1        0.1138
     22 H          66.5923   93.8564   12.0916 H       1  UNL1        0.1233
     23 S          61.7430   86.8631   10.6118 S.O2    1  UNL1        0.0635
     24 O          62.9368   87.7599   10.4685 O.2     1  UNL1       -0.1528
     25 O          60.8587   85.9054   10.9630 O.2     1  UNL1       -0.1528
     26 C          62.4699   86.0612   11.6502 C.ar    1  UNL1        0.1223
     27 C          63.2355   86.7581   12.7358 C.ar    1  UNL1        0.0208
     28 C          63.9625   85.9562   13.7743 C.ar    1  UNL1        0.0128
     29 C          63.9239   84.4575   13.7272 C.ar    1  UNL1        0.0578
     30 CL         64.6509   83.6556   14.7657 Cl      1  UNL1       -0.0822
     31 C          63.1585   83.7606   12.6417 C.ar    1  UNL1        0.0128
     32 C          62.4314   84.5625   11.6032 C.ar    1  UNL1        0.0208
@<TRIPOS>BOND
     1     7     8    1
     2     8     9    1
     3     1     8    1
     4     1     2    1
     5     2     3    1
     6     3     4    1
     7     4     5    1
     8     5    10    1
     9    10    13    1
    10    13    14    1
    11    14    15    2
    12    14    16   am
    13    16    17    1
    14    17    18    1
    15    18    19    1
    16    19    20    1
    17    20    21    1
    18    10    11    1
    19    11    12    1
    20     5     6    1
    21     6    23    1
    22    23    24    2
    23    23    25    2
    24    23    26    1
    25    26    27   ar
    26    27    28   ar
    27    28    29   ar
    28    29    30    1
    29    29    31   ar
    30    31    32   ar
    31     6     1    1
    32    32    26   ar
    33    12    10    1
    34    21    16    1
    35    19    22    1
@<TRIPOS>MOLECULE
*****
 32 35 0 0 0
SMALL
GASTEIGER

@<TRIPOS>ATOM
      1 C          62.9665   93.3323    1.4774 C.3     1  UNL1        0.1092
      2 C          64.4136   93.3928    1.8676 C.3     1  UNL1        0.1598
      3 O          65.3930   94.1308    1.0039 O.3     1  UNL1       -0.3507
      4 C          64.9254   94.8084   -0.2500 C.3     1  UNL1        0.1634
      5 C          63.4783   94.7480   -0.6401 C.3     1  UNL1        0.1455
      6 N          62.4988   94.0099    0.2236 N.3     1  UNL1       -0.1499
      7 C          60.6894   93.2413    2.7250 C.3     1  UNL1        0.0015
      8 C          61.9870   92.5943    2.3411 C.3     1  UNL1        0.0189
      9 C          62.3052   91.2092    2.8210 C.3     1  UNL1        0.0015
     10 C          63.0106   95.4256   -1.8940 C.3     1  UNL1        0.1550
     11 C          62.5981   96.5172   -2.8365 C.3     1  UNL1        0.0453
     12 C          63.0071   96.8530   -1.4329 C.3     1  UNL1        0.0453
     13 O          62.8517   94.2335   -2.7904 O.3     1  UNL1       -0.4403
     14 C          62.7375   94.4210   -4.2743 C.2     1  UNL1        0.4048
     15 O          63.9715   94.6301   -5.1010 O.2     1  UNL1       -0.2262
     16 N          61.3893   94.3993   -4.9315 N.am    1  UNL1       -0.2432
     17 C          60.1553   94.1902   -4.1048 C.3     1  UNL1        0.1138
     18 C          58.8070   94.1685   -4.7620 C.3     1  UNL1        0.0905
     19 N          58.6928   94.3559   -6.2457 N.3     1  UNL1       -0.2946
     20 C          59.9268   94.5650   -7.0725 C.3     1  UNL1        0.0905
     21 C          61.2751   94.5867   -6.4153 C.3     1  UNL1        0.1138
     22 H          58.0971   95.1704   -6.3947 H       1  UNL1        0.1233
     23 S          61.0517   93.9495   -0.1666 S.O2    1  UNL1        0.0635
     24 O          61.2587   92.5711   -0.7206 O.2     1  UNL1       -0.1528
     25 O          60.5559   95.1401    0.2323 O.2     1  UNL1       -0.1528
     26 C          59.6046   93.8891   -0.5568 C.ar    1  UNL1        0.1223
     27 C          58.9424   92.5615   -0.7783 C.ar    1  UNL1        0.0208
     28 C          57.4953   92.5010   -1.1685 C.ar    1  UNL1        0.0128
     29 C          56.7104   93.7681   -1.3372 C.ar    1  UNL1        0.0578
     30 CL         55.2633   93.7076   -1.7274 Cl      1  UNL1       -0.0822
     31 C          57.3726   95.0956   -1.1157 C.ar    1  UNL1        0.0128
     32 C          58.8197   95.1562   -0.7255 C.ar    1  UNL1        0.0208
@<TRIPOS>BOND
     1     7     8    1
     2     8     9    1
     3     1     8    1
     4     1     2    1
     5     2     3    1
     6     3     4    1
     7     4     5    1
     8     5    10    1
     9    10    13    1
    10    13    14    1
    11    14    15    2
    12    14    16   am
    13    16    17    1
    14    17    18    1
    15    18    19    1
    16    19    20    1
    17    20    21    1
    18    10    11    1
    19    11    12    1
    20     5     6    1
    21     6    23    1
    22    23    24    2
    23    23    25    2
    24    23    26    1
    25    26    27   ar
    26    27    28   ar
    27    28    29   ar
    28    29    30    1
    29    29    31   ar
    30    31    32   ar
    31     6     1    1
    32    32    26   ar
    33    12    10    1
    34    21    16    1
    35    19    22    1
