@<TRIPOS>MOLECULE
*****
 31 34 0 0 0
SMALL
GASTEIGER

@<TRIPOS>ATOM
      1 C          63.7762   86.3816   15.6876 C.3     1  UNL1        0.0743
      2 C          63.1302   87.1287   16.8166 C.3     1  UNL1        0.0369
      3 C          63.1549   88.6283   16.8348 C.3     1  UNL1        0.0741
      4 N          63.8255   89.3810   15.7240 N.3     1  UNL1       -0.2688
      5 C          64.4715   88.6340   14.5950 C.3     1  UNL1        0.0741
      6 C          64.4468   87.1342   14.5768 C.3     1  UNL1        0.0369
      7 O          61.9770   84.9342   13.7724 O.2     1  UNL1       -0.2747
      8 C          62.8519   84.1582   14.7117 C.2     1  UNL1        0.2269
      9 N          63.7516   84.8820   15.6693 N.am    1  UNL1       -0.3056
     10 H          64.3258   84.3727   16.2858 H       1  UNL1        0.1494
     11 C          62.8273   82.6586   14.6935 C.3     1  UNL1        0.1113
     12 C          62.9037   81.9230   13.3884 C.ar    1  UNL1       -0.0131
     13 C          63.3692   82.6344   12.1526 C.ar    1  UNL1       -0.0038
     14 C          63.4456   81.8989   10.8476 C.ar    1  UNL1       -0.0003
     15 C          63.0564   80.4519   10.7784 C.ar    1  UNL1       -0.0000
     16 C          62.5909   79.7405   12.0141 C.ar    1  UNL1       -0.0003
     17 C          62.5145   80.4760   13.3191 C.ar    1  UNL1       -0.0038
     18 C          63.8502   90.8807   15.7423 C.3     1  UNL1        0.0992
     19 C          65.0490   91.6175   15.2226 C.ar    1  UNL1       -0.0031
     20 C          65.9530   92.3443   16.1737 C.ar    1  UNL1       -0.0027
     21 C          67.1518   93.0811   15.6540 C.ar    1  UNL1        0.0029
     22 C          67.4466   93.0910   14.1833 C.ar    1  UNL1        0.0375
     23 C          66.5426   92.3642   13.2323 C.ar    1  UNL1        0.1450
     24 C          65.3438   91.6274   13.7520 C.ar    1  UNL1        0.0346
     25 O          66.8374   92.3741   11.7615 O.3     1  UNL1       -0.4535
     26 C          66.8413   93.6701   11.0062 C.ar    1  UNL1        0.1453
     27 C          66.1194   94.8629   11.5595 C.ar    1  UNL1        0.0375
     28 C          66.1234   96.1588   10.8042 C.ar    1  UNL1        0.0031
     29 C          66.8491   96.2619    9.4954 C.ar    1  UNL1        0.0002
     30 C          67.5709   95.0691    8.9421 C.ar    1  UNL1        0.0031
     31 C          67.5670   93.7732    9.6975 C.ar    1  UNL1        0.0375
@<TRIPOS>BOND
     1     7     8    2
     2     8    11    1
     3    11    12    1
     4    12    13   ar
     5    13    14   ar
     6    14    15   ar
     7    15    16   ar
     8    16    17   ar
     9     8     9   am
    10     9     1    1
    11     1     2    1
    12     2     3    1
    13     3     4    1
    14     4    18    1
    15    18    19    1
    16    19    20   ar
    17    20    21   ar
    18    21    22   ar
    19    22    23   ar
    20    23    25    1
    21    25    26    1
    22    26    27   ar
    23    27    28   ar
    24    28    29   ar
    25    29    30   ar
    26    30    31   ar
    27    23    24   ar
    28     4     5    1
    29     5     6    1
    30    17    12   ar
    31     6     1    1
    32    24    19   ar
    33    31    26   ar
    34     9    10    1
@<TRIPOS>MOLECULE
*****
 31 34 0 0 0
SMALL
GASTEIGER

@<TRIPOS>ATOM
      1 C          64.1435   89.9786   14.9335 C.3     1  UNL1        0.0743
      2 C          63.4428   89.7307   16.2364 C.3     1  UNL1        0.0369
      3 C          63.1643   88.3260   16.6827 C.3     1  UNL1        0.0741
      4 N          63.5863   87.1692   15.8261 N.3     1  UNL1       -0.2688
      5 C          64.2870   87.4171   14.5232 C.3     1  UNL1        0.0741
      6 C          64.5656   88.8219   14.0769 C.3     1  UNL1        0.0369
      7 O          66.9647   90.9957   14.8542 O.2     1  UNL1       -0.2747
      8 C          65.8327   91.8919   14.4475 C.2     1  UNL1        0.2269
      9 N          64.4221   91.3833   14.4872 N.am    1  UNL1       -0.3056
     10 H          63.6791   91.9715   14.2203 H       1  UNL1        0.1494
     11 C          66.1113   93.2965   14.0012 C.3     1  UNL1        0.1113
     12 C          66.4463   93.5749   12.5658 C.ar    1  UNL1       -0.0131
     13 C          66.9706   92.4750   11.6910 C.ar    1  UNL1       -0.0038
     14 C          67.3056   92.7534   10.2557 C.ar    1  UNL1       -0.0003
     15 C          67.1163   94.1318    9.6951 C.ar    1  UNL1       -0.0000
     16 C          66.5920   95.2317   10.5699 C.ar    1  UNL1       -0.0003
     17 C          66.2570   94.9533   12.0052 C.ar    1  UNL1       -0.0038
     18 C          63.3078   85.7645   16.2724 C.3     1  UNL1        0.0992
     19 C          63.0878   84.6841   15.2554 C.ar    1  UNL1       -0.0031
     20 C          62.3727   83.4238   15.6428 C.ar    1  UNL1       -0.0027
     21 C          62.1527   82.3433   14.6258 C.ar    1  UNL1        0.0029
     22 C          62.6477   82.5233   13.2214 C.ar    1  UNL1        0.0375
     23 C          63.3628   83.7836   12.8339 C.ar    1  UNL1        0.1450
     24 C          63.5828   84.8640   13.8509 C.ar    1  UNL1        0.0346
     25 O          63.8579   83.9636   11.4294 O.3     1  UNL1       -0.4535
     26 C          63.0153   84.6921   10.4248 C.ar    1  UNL1        0.1453
     27 C          63.3515   84.6121    8.9650 C.ar    1  UNL1        0.0375
     28 C          62.5089   85.3405    7.9604 C.ar    1  UNL1        0.0031
     29 C          61.3301   86.1490    8.4154 C.ar    1  UNL1        0.0002
     30 C          60.9940   86.2290    9.8750 C.ar    1  UNL1        0.0031
     31 C          61.8366   85.5005   10.8797 C.ar    1  UNL1        0.0375
@<TRIPOS>BOND
     1     7     8    2
     2     8    11    1
     3    11    12    1
     4    12    13   ar
     5    13    14   ar
     6    14    15   ar
     7    15    16   ar
     8    16    17   ar
     9     8     9   am
    10     9     1    1
    11     1     2    1
    12     2     3    1
    13     3     4    1
    14     4    18    1
    15    18    19    1
    16    19    20   ar
    17    20    21   ar
    18    21    22   ar
    19    22    23   ar
    20    23    25    1
    21    25    26    1
    22    26    27   ar
    23    27    28   ar
    24    28    29   ar
    25    29    30   ar
    26    30    31   ar
    27    23    24   ar
    28     4     5    1
    29     5     6    1
    30    17    12   ar
    31     6     1    1
    32    24    19   ar
    33    31    26   ar
    34     9    10    1
@<TRIPOS>MOLECULE
*****
 31 34 0 0 0
SMALL
GASTEIGER

@<TRIPOS>ATOM
      1 C          62.3127   90.1609   12.2543 C.3     1  UNL1        0.0743
      2 C          60.9198   89.6667   12.5103 C.3     1  UNL1        0.0369
      3 C          60.2432   88.7783   11.5088 C.3     1  UNL1        0.0741
      4 N          60.9597   88.3840   10.2513 N.3     1  UNL1       -0.2688
      5 C          62.3526   88.8781    9.9953 C.3     1  UNL1        0.0741
      6 C          63.0291   89.7666   10.9969 C.3     1  UNL1        0.0369
      7 O          63.5828   88.9714   14.6982 O.2     1  UNL1       -0.2747
      8 C          63.6243   90.4546   14.4778 C.2     1  UNL1        0.2269
      9 N          62.9892   91.0493   13.2558 N.am    1  UNL1       -0.3056
     10 H          63.0165   92.0227   13.1111 H       1  UNL1        0.1494
     11 C          64.3008   91.3430   15.4792 C.3     1  UNL1        0.1113
     12 C          65.7161   91.7860   15.2535 C.ar    1  UNL1       -0.0131
     13 C          66.4385   92.5592   16.3166 C.ar    1  UNL1       -0.0038
     14 C          67.8536   93.0022   16.0909 C.ar    1  UNL1       -0.0003
     15 C          68.5464   92.6721   14.8021 C.ar    1  UNL1       -0.0000
     16 C          67.8240   91.8989   13.7390 C.ar    1  UNL1       -0.0003
     17 C          66.4088   91.4559   13.9647 C.ar    1  UNL1       -0.0038
     18 C          60.2832   87.4956    9.2498 C.3     1  UNL1        0.0992
     19 C          61.0511   86.3893    8.5891 C.ar    1  UNL1       -0.0031
     20 C          60.7072   85.9687    7.1910 C.ar    1  UNL1       -0.0027
     21 C          61.4751   84.8625    6.5303 C.ar    1  UNL1        0.0029
     22 C          62.5869   84.1768    7.2677 C.ar    1  UNL1        0.0375
     23 C          62.9307   84.5974    8.6658 C.ar    1  UNL1        0.1450
     24 C          62.1628   85.7037    9.3265 C.ar    1  UNL1        0.0346
     25 O          64.0425   83.9118    9.4033 O.3     1  UNL1       -0.4535
     26 C          63.7533   83.1683   10.6736 C.ar    1  UNL1        0.1453
     27 C          63.3168   81.7341   10.6204 C.ar    1  UNL1        0.0375
     28 C          63.0276   80.9907   11.8907 C.ar    1  UNL1        0.0031
     29 C          63.1748   81.6814   13.2141 C.ar    1  UNL1        0.0002
     30 C          63.6113   83.1155   13.2672 C.ar    1  UNL1        0.0031
     31 C          63.9005   83.8590   11.9969 C.ar    1  UNL1        0.0375
@<TRIPOS>BOND
     1     7     8    2
     2     8    11    1
     3    11    12    1
     4    12    13   ar
     5    13    14   ar
     6    14    15   ar
     7    15    16   ar
     8    16    17   ar
     9     8     9   am
    10     9     1    1
    11     1     2    1
    12     2     3    1
    13     3     4    1
    14     4    18    1
    15    18    19    1
    16    19    20   ar
    17    20    21   ar
    18    21    22   ar
    19    22    23   ar
    20    23    25    1
    21    25    26    1
    22    26    27   ar
    23    27    28   ar
    24    28    29   ar
    25    29    30   ar
    26    30    31   ar
    27    23    24   ar
    28     4     5    1
    29     5     6    1
    30    17    12   ar
    31     6     1    1
    32    24    19   ar
    33    31    26   ar
    34     9    10    1
@<TRIPOS>MOLECULE
*****
 31 34 0 0 0
SMALL
GASTEIGER

@<TRIPOS>ATOM
      1 C          63.5443   86.8301   15.8724 C.3     1  UNL1        0.0743
      2 C          62.9946   87.8810   16.7908 C.3     1  UNL1        0.0369
      3 C          63.2981   89.3286   16.5410 C.3     1  UNL1        0.0741
      4 N          64.1514   89.7253   15.3728 N.3     1  UNL1       -0.2688
      5 C          64.7012   88.6744   14.4545 C.3     1  UNL1        0.0741
      6 C          64.3976   87.2267   14.7043 C.3     1  UNL1        0.0369
      7 O          62.3321   85.1549   13.6988 O.2     1  UNL1       -0.2747
      8 C          62.6347   84.5449   15.0354 C.2     1  UNL1        0.2269
      9 N          63.2408   85.3826   16.1222 N.am    1  UNL1       -0.3056
     10 H          63.4394   84.9822   16.9994 H       1  UNL1        0.1494
     11 C          62.3312   83.0974   15.2851 C.3     1  UNL1        0.1113
     12 C          62.4779   82.0981   14.1761 C.ar    1  UNL1       -0.0131
     13 C          61.8343   80.7482   14.2928 C.ar    1  UNL1       -0.0038
     14 C          61.9810   79.7490   13.1838 C.ar    1  UNL1       -0.0003
     15 C          62.7714   80.0996   11.9581 C.ar    1  UNL1       -0.0000
     16 C          63.4150   81.4494   11.8414 C.ar    1  UNL1       -0.0003
     17 C          63.2682   82.4487   12.9504 C.ar    1  UNL1       -0.0038
     18 C          64.4550   91.1728   15.1231 C.3     1  UNL1        0.0992
     19 C          64.7105   91.6553   13.7260 C.ar    1  UNL1       -0.0031
     20 C          65.8836   92.5463   13.4430 C.ar    1  UNL1       -0.0027
     21 C          66.1391   93.0288   12.0459 C.ar    1  UNL1        0.0029
     22 C          65.2216   92.6204   10.9318 C.ar    1  UNL1        0.0375
     23 C          64.0485   91.7295   11.2148 C.ar    1  UNL1        0.1450
     24 C          63.7930   91.2469   12.6119 C.ar    1  UNL1        0.0346
     25 O          63.1309   91.3210   10.1006 O.3     1  UNL1       -0.4535
     26 C          62.1241   90.2309   10.3197 C.ar    1  UNL1        0.1453
     27 C          60.7602   90.5647   10.8474 C.ar    1  UNL1        0.0375
     28 C          59.7534   89.4746   11.0665 C.ar    1  UNL1        0.0031
     29 C          60.1105   88.0507   10.7579 C.ar    1  UNL1        0.0002
     30 C          61.4744   87.7170   10.2302 C.ar    1  UNL1        0.0031
     31 C          62.4812   88.8071   10.0111 C.ar    1  UNL1        0.0375
@<TRIPOS>BOND
     1     7     8    2
     2     8    11    1
     3    11    12    1
     4    12    13   ar
     5    13    14   ar
     6    14    15   ar
     7    15    16   ar
     8    16    17   ar
     9     8     9   am
    10     9     1    1
    11     1     2    1
    12     2     3    1
    13     3     4    1
    14     4    18    1
    15    18    19    1
    16    19    20   ar
    17    20    21   ar
    18    21    22   ar
    19    22    23   ar
    20    23    25    1
    21    25    26    1
    22    26    27   ar
    23    27    28   ar
    24    28    29   ar
    25    29    30   ar
    26    30    31   ar
    27    23    24   ar
    28     4     5    1
    29     5     6    1
    30    17    12   ar
    31     6     1    1
    32    24    19   ar
    33    31    26   ar
    34     9    10    1
@<TRIPOS>MOLECULE
*****
 31 34 0 0 0
SMALL
GASTEIGER

@<TRIPOS>ATOM
      1 C          63.4225   90.5672   12.0910 C.3     1  UNL1        0.0743
      2 C          62.5691   90.9596   10.9215 C.3     1  UNL1        0.0369
      3 C          61.6999   89.9375   10.2508 C.3     1  UNL1        0.0741
      4 N          61.6842   88.5229   10.7497 N.3     1  UNL1       -0.2688
      5 C          62.5376   88.1305   11.9191 C.3     1  UNL1        0.0741
      6 C          63.4068   89.1527   12.5898 C.3     1  UNL1        0.0369
      7 O          65.4016   92.1433   10.4788 O.2     1  UNL1       -0.2747
      8 C          65.2813   92.3774   11.9555 C.2     1  UNL1        0.2269
      9 N          64.2917   91.5893   12.7616 N.am    1  UNL1       -0.3056
     10 H          64.2126   91.7429   13.7308 H       1  UNL1        0.1494
     11 C          66.1504   93.3995   12.6261 C.3     1  UNL1        0.1113
     12 C          66.9082   93.0398   13.8698 C.ar    1  UNL1       -0.0131
     13 C          66.2259   93.0900   15.2046 C.ar    1  UNL1       -0.0038
     14 C          66.9837   92.7304   16.4482 C.ar    1  UNL1       -0.0003
     15 C          68.4237   92.3206   16.3568 C.ar    1  UNL1       -0.0000
     16 C          69.1060   92.2704   15.0219 C.ar    1  UNL1       -0.0003
     17 C          68.3482   92.6300   13.7784 C.ar    1  UNL1       -0.0038
     18 C          60.8150   87.5008   10.0790 C.3     1  UNL1        0.0992
     19 C          61.4355   86.4214    9.2423 C.ar    1  UNL1       -0.0031
     20 C          61.0217   86.2510    7.8107 C.ar    1  UNL1       -0.0027
     21 C          61.6422   85.1717    6.9740 C.ar    1  UNL1        0.0029
     22 C          62.6765   84.2628    7.5690 C.ar    1  UNL1        0.0375
     23 C          63.0903   84.4332    9.0007 C.ar    1  UNL1        0.1450
     24 C          62.4698   85.5125    9.8373 C.ar    1  UNL1        0.0346
     25 O          64.1246   83.5242    9.5957 O.3     1  UNL1       -0.4535
     26 C          63.8651   82.8527   10.9116 C.ar    1  UNL1        0.1453
     27 C          64.3145   83.5024   12.1868 C.ar    1  UNL1        0.0375
     28 C          64.0549   82.8308   13.5027 C.ar    1  UNL1        0.0031
     29 C          63.3459   81.5095   13.5435 C.ar    1  UNL1        0.0002
     30 C          62.8966   80.8598   12.2683 C.ar    1  UNL1        0.0031
     31 C          63.1562   81.5314   10.9524 C.ar    1  UNL1        0.0375
@<TRIPOS>BOND
     1     7     8    2
     2     8    11    1
     3    11    12    1
     4    12    13   ar
     5    13    14   ar
     6    14    15   ar
     7    15    16   ar
     8    16    17   ar
     9     8     9   am
    10     9     1    1
    11     1     2    1
    12     2     3    1
    13     3     4    1
    14     4    18    1
    15    18    19    1
    16    19    20   ar
    17    20    21   ar
    18    21    22   ar
    19    22    23   ar
    20    23    25    1
    21    25    26    1
    22    26    27   ar
    23    27    28   ar
    24    28    29   ar
    25    29    30   ar
    26    30    31   ar
    27    23    24   ar
    28     4     5    1
    29     5     6    1
    30    17    12   ar
    31     6     1    1
    32    24    19   ar
    33    31    26   ar
    34     9    10    1
@<TRIPOS>MOLECULE
*****
 31 34 0 0 0
SMALL
GASTEIGER

@<TRIPOS>ATOM
      1 C          63.6399   90.8558   12.1378 C.3     1  UNL1        0.0743
      2 C          63.0580   91.1438   10.7855 C.3     1  UNL1        0.0369
      3 C          62.3880   90.0494   10.0088 C.3     1  UNL1        0.0741
      4 N          62.2998   88.6669   10.5843 N.3     1  UNL1       -0.2688
      5 C          62.8817   88.3790   11.9365 C.3     1  UNL1        0.0741
      6 C          63.5517   89.4734   12.7133 C.3     1  UNL1        0.0369
      7 O          66.1269   92.1482   11.0681 O.2     1  UNL1       -0.2747
      8 C          65.5534   92.5964   12.3796 C.2     1  UNL1        0.2269
      9 N          64.3099   91.9502   12.9145 N.am    1  UNL1       -0.3056
     10 H          63.9335   92.2444   13.7753 H       1  UNL1        0.1494
     11 C          66.2235   93.6908   13.1564 C.3     1  UNL1        0.1113
     12 C          67.1768   93.3497   14.2631 C.ar    1  UNL1       -0.0131
     13 C          67.8713   94.4436   15.0186 C.ar    1  UNL1       -0.0038
     14 C          68.8246   94.1025   16.1253 C.ar    1  UNL1       -0.0003
     15 C          69.0834   92.6673   16.4764 C.ar    1  UNL1       -0.0000
     16 C          68.3889   91.5733   15.7210 C.ar    1  UNL1       -0.0003
     17 C          67.4356   91.9145   14.6143 C.ar    1  UNL1       -0.0038
     18 C          61.6298   87.5725    9.8076 C.3     1  UNL1        0.0992
     19 C          62.2241   86.1955    9.7868 C.ar    1  UNL1       -0.0031
     20 C          62.6739   85.5922    8.4892 C.ar    1  UNL1       -0.0027
     21 C          63.2682   84.2151    8.4685 C.ar    1  UNL1        0.0029
     22 C          63.4127   83.4413    9.7452 C.ar    1  UNL1        0.0375
     23 C          62.9629   84.0445   11.0428 C.ar    1  UNL1        0.1450
     24 C          62.3686   85.4216   11.0636 C.ar    1  UNL1        0.0346
     25 O          63.1074   83.2707   12.3197 O.3     1  UNL1       -0.4535
     26 C          63.2718   83.9965   13.6220 C.ar    1  UNL1        0.1453
     27 C          64.4885   84.8406   13.8619 C.ar    1  UNL1        0.0375
     28 C          64.6529   85.5664   15.1642 C.ar    1  UNL1        0.0031
     29 C          63.6006   85.4482   16.2267 C.ar    1  UNL1        0.0002
     30 C          62.3841   84.6042   15.9869 C.ar    1  UNL1        0.0031
     31 C          62.2197   83.8784   14.6845 C.ar    1  UNL1        0.0375
@<TRIPOS>BOND
     1     7     8    2
     2     8    11    1
     3    11    12    1
     4    12    13   ar
     5    13    14   ar
     6    14    15   ar
     7    15    16   ar
     8    16    17   ar
     9     8     9   am
    10     9     1    1
    11     1     2    1
    12     2     3    1
    13     3     4    1
    14     4    18    1
    15    18    19    1
    16    19    20   ar
    17    20    21   ar
    18    21    22   ar
    19    22    23   ar
    20    23    25    1
    21    25    26    1
    22    26    27   ar
    23    27    28   ar
    24    28    29   ar
    25    29    30   ar
    26    30    31   ar
    27    23    24   ar
    28     4     5    1
    29     5     6    1
    30    17    12   ar
    31     6     1    1
    32    24    19   ar
    33    31    26   ar
    34     9    10    1
@<TRIPOS>MOLECULE
*****
 31 34 0 0 0
SMALL
GASTEIGER

@<TRIPOS>ATOM
      1 C          63.5730   90.6023   12.2253 C.3     1  UNL1        0.0743
      2 C          62.5542   90.6030   11.1244 C.3     1  UNL1        0.0369
      3 C          61.8034   89.3465   10.7965 C.3     1  UNL1        0.0741
      4 N          62.0715   88.0892   11.5695 N.3     1  UNL1       -0.2688
      5 C          63.0903   88.0885   12.6705 C.3     1  UNL1        0.0741
      6 C          63.8410   89.3451   12.9983 C.3     1  UNL1        0.0369
      7 O          65.1328   92.0184   10.0895 O.2     1  UNL1       -0.2747
      8 C          65.1036   92.5668   11.4853 C.2     1  UNL1        0.2269
      9 N          64.3237   91.8588   12.5532 N.am    1  UNL1       -0.3056
     10 H          64.3046   92.2187   13.4694 H       1  UNL1        0.1494
     11 C          65.8544   93.8233   11.8132 C.3     1  UNL1        0.1113
     12 C          66.3060   94.7363   10.7120 C.ar    1  UNL1       -0.0131
     13 C          67.5742   94.4423    9.9668 C.ar    1  UNL1       -0.0038
     14 C          68.0258   95.3552    8.8656 C.ar    1  UNL1       -0.0003
     15 C          67.2092   96.5620    8.5096 C.ar    1  UNL1       -0.0000
     16 C          65.9410   96.8560    9.2548 C.ar    1  UNL1       -0.0003
     17 C          65.4894   95.9431   10.3560 C.ar    1  UNL1       -0.0038
     18 C          61.3207   86.8327   11.2416 C.3     1  UNL1        0.0992
     19 C          61.8609   85.8828   10.2140 C.ar    1  UNL1       -0.0031
     20 C          61.5747   86.1095    8.7592 C.ar    1  UNL1       -0.0027
     21 C          62.1149   85.1596    7.7316 C.ar    1  UNL1        0.0029
     22 C          62.9412   83.9829    8.1589 C.ar    1  UNL1        0.0375
     23 C          63.2274   83.7562    9.6138 C.ar    1  UNL1        0.1450
     24 C          62.6872   84.7061   10.6413 C.ar    1  UNL1        0.0346
     25 O          64.0538   82.5795   10.0411 O.3     1  UNL1       -0.4535
     26 C          63.7476   81.8767   11.3304 C.ar    1  UNL1        0.1453
     27 C          62.8075   80.7078   11.3425 C.ar    1  UNL1        0.0375
     28 C          62.5013   80.0049   12.6318 C.ar    1  UNL1        0.0031
     29 C          63.1352   80.4710   13.9090 C.ar    1  UNL1        0.0002
     30 C          64.0752   81.6398   13.8968 C.ar    1  UNL1        0.0031
     31 C          64.3814   82.3426   12.6075 C.ar    1  UNL1        0.0375
@<TRIPOS>BOND
     1     7     8    2
     2     8    11    1
     3    11    12    1
     4    12    13   ar
     5    13    14   ar
     6    14    15   ar
     7    15    16   ar
     8    16    17   ar
     9     8     9   am
    10     9     1    1
    11     1     2    1
    12     2     3    1
    13     3     4    1
    14     4    18    1
    15    18    19    1
    16    19    20   ar
    17    20    21   ar
    18    21    22   ar
    19    22    23   ar
    20    23    25    1
    21    25    26    1
    22    26    27   ar
    23    27    28   ar
    24    28    29   ar
    25    29    30   ar
    26    30    31   ar
    27    23    24   ar
    28     4     5    1
    29     5     6    1
    30    17    12   ar
    31     6     1    1
    32    24    19   ar
    33    31    26   ar
    34     9    10    1
