@<TRIPOS>MOLECULE
*****
 43 47 0 0 0
SMALL
GASTEIGER

@<TRIPOS>ATOM
      1 C          63.3717   84.3643   11.9529 C.ar    1  UNL1        0.2394
      2 N          63.3498   85.1611   13.2236 N.ar    1  UNL1       -0.1782
      3 C          63.0586   84.4828   14.5293 C.ar    1  UNL1        0.2194
      4 N          62.7892   83.0075   14.5644 N.ar    1  UNL1       -0.2131
      5 C          62.8111   82.2107   13.2937 C.ar    1  UNL1        0.0952
      6 C          62.5853   80.7535   13.0188 C.ar    1  UNL1        0.0268
      7 C          62.7369   80.5314   11.5432 C.ar    1  UNL1        0.0372
      8 S          63.0565   81.8512   10.9061 S.2     1  UNL1       -0.0803
      9 C          63.1024   82.8891   11.9880 C.ar    1  UNL1        0.1008
     10 N          63.0367   85.2797   15.8000 N.pl3   1  UNL1       -0.3045
     11 H          62.8203   84.8393   16.6535 H       1  UNL1        0.1496
     12 C          63.3445   86.7475   15.7702 C.3     1  UNL1        0.0745
     13 C          64.2540   87.3018   14.7141 C.3     1  UNL1        0.0369
     14 C          64.5618   88.7695   14.6843 C.3     1  UNL1        0.0741
     15 N          63.9601   89.6830   15.7106 N.3     1  UNL1       -0.2689
     16 C          63.0505   89.1287   16.7668 C.3     1  UNL1        0.0741
     17 C          62.7427   87.6609   16.7965 C.3     1  UNL1        0.0369
     18 C          64.2678   91.1509   15.6809 C.3     1  UNL1        0.0991
     19 C          64.9392   91.7522   14.4819 C.ar    1  UNL1       -0.0061
     20 C          64.3434   91.5680   13.1176 C.ar    1  UNL1       -0.0015
     21 C          65.0148   92.1693   11.9187 C.ar    1  UNL1        0.0196
     22 C          66.2819   92.9549   12.0840 C.ar    1  UNL1        0.1217
     23 C          66.8777   93.1392   13.4482 C.ar    1  UNL1        0.0196
     24 C          66.2063   92.5378   14.6472 C.ar    1  UNL1       -0.0015
     25 S          66.9533   93.5563   10.8850 S.O2    1  UNL1        0.0572
     26 N          67.6247   94.1576    9.6860 N.3     1  UNL1       -0.2035
     27 O          65.8612   94.5798   10.7867 O.2     1  UNL1       -0.1532
     28 O          68.0455   92.5328   10.9832 O.2     1  UNL1       -0.1532
     29 H          67.0767   94.9501    9.3512 H       1  UNL1        0.1442
     30 H          67.6946   93.4567    8.9482 H       1  UNL1        0.1442
     31 O          63.6630   85.0427   10.6472 O.3     1  UNL1       -0.4362
     32 C          62.6878   84.1283    7.9614 C.3     1  UNL1        0.0342
     33 C          62.0947   85.3498    8.5987 C.ar    1  UNL1        0.0124
     34 C          61.0139   86.1141    7.8932 C.ar    1  UNL1       -0.0012
     35 C          60.4207   87.3356    8.5305 C.ar    1  UNL1        0.0003
     36 C          60.9083   87.7928    9.8733 C.ar    1  UNL1       -0.0012
     37 C          61.9891   87.0285   10.5789 C.ar    1  UNL1        0.0124
     38 C          62.4767   87.4857   11.9217 C.3     1  UNL1        0.0342
     39 C          62.5822   85.8070    9.9416 C.ar    1  UNL1        0.1391
     40 C          59.3399   88.1000    7.8249 C.2     1  UNL1        0.0109
     41 C          59.6904   89.2931    6.9862 C.2     1  UNL1        0.0780
     42 C          58.6096   90.0574    6.2806 C.1     1  UNL1        0.1011
     43 N          57.5288   90.8216    5.5750 N.1     1  UNL1       -0.1908
@<TRIPOS>BOND
     1    32    33    1
     2    33    34   ar
     3    34    35   ar
     4    35    40    1
     5    40    41    2
     6    41    42    1
     7    42    43    3
     8    35    36   ar
     9    36    37   ar
    10    37    38    1
    11    37    39   ar
    12    39    31    1
    13    31     1    1
    14     1     2   ar
    15     2     3   ar
    16     3    10    1
    17    10    12    1
    18    12    13    1
    19    13    14    1
    20    14    15    1
    21    15    18    1
    22    18    19    1
    23    19    20   ar
    24    20    21   ar
    25    21    22   ar
    26    22    25    1
    27    25    26    1
    28    25    27    2
    29    25    28    2
    30    22    23   ar
    31    23    24   ar
    32    15    16    1
    33    16    17    1
    34     3     4   ar
    35     4     5   ar
    36     5     6   ar
    37     6     7   ar
    38     7     8   ar
    39     8     9   ar
    40    39    33   ar
    41     9     1   ar
    42    17    12    1
    43     9     5   ar
    44    24    19   ar
    45    10    11    1
    46    26    29    1
    47    26    30    1
@<TRIPOS>MOLECULE
*****
 43 47 0 0 0
SMALL
GASTEIGER

@<TRIPOS>ATOM
      1 C          62.9022   87.9403   12.8163 C.ar    1  UNL1        0.2394
      2 N          62.2528   87.5329   11.5270 N.ar    1  UNL1       -0.1782
      3 C          62.3561   86.1143   11.0507 C.ar    1  UNL1        0.2194
      4 N          63.1088   85.1030   11.8637 N.ar    1  UNL1       -0.2131
      5 C          63.7582   85.5105   13.1530 C.ar    1  UNL1        0.0952
      6 C          64.5600   84.7405   14.1601 C.ar    1  UNL1        0.0268
      7 C          64.9522   85.6833   15.2588 C.ar    1  UNL1        0.0372
      8 S          64.3929   87.0359   14.9308 S.2     1  UNL1       -0.0803
      9 C          63.6549   86.9291   13.6293 C.ar    1  UNL1        0.1008
     10 N          61.7066   85.7069    9.7614 N.pl3   1  UNL1       -0.3045
     11 H          61.8172   84.7891    9.4230 H       1  UNL1        0.1496
     12 C          60.8886   86.6980    8.9877 C.3     1  UNL1        0.0745
     13 C          60.9645   88.1580    9.3234 C.3     1  UNL1        0.0369
     14 C          60.1465   89.1491    8.5497 C.3     1  UNL1        0.0741
     15 N          59.2525   88.6802    7.4403 N.3     1  UNL1       -0.2689
     16 C          59.1765   87.2202    7.1045 C.3     1  UNL1        0.0741
     17 C          59.9945   86.2291    7.8782 C.3     1  UNL1        0.0369
     18 C          58.4344   89.6712    6.6665 C.3     1  UNL1        0.0991
     19 C          59.0876   90.5355    5.6290 C.ar    1  UNL1       -0.0061
     20 C          58.2652   91.5094    4.8382 C.ar    1  UNL1       -0.0015
     21 C          58.9185   92.3735    3.8007 C.ar    1  UNL1        0.0196
     22 C          60.3940   92.2639    3.5540 C.ar    1  UNL1        0.1217
     23 C          61.2163   91.2901    4.3448 C.ar    1  UNL1        0.0196
     24 C          60.5631   90.4258    5.3823 C.ar    1  UNL1       -0.0015
     25 S          61.0472   93.1282    2.5165 S.O2    1  UNL1        0.0572
     26 N          61.7003   93.9924    1.4790 N.3     1  UNL1       -0.2035
     27 O          62.2516   92.2343    2.5302 O.2     1  UNL1       -0.1532
     28 O          59.8427   94.0220    2.5028 O.2     1  UNL1       -0.1532
     29 H          62.6206   93.6152    1.2526 H       1  UNL1        0.1442
     30 H          61.8011   94.9407    1.8408 H       1  UNL1        0.1442
     31 O          62.7990   89.3589   13.2926 O.3     1  UNL1       -0.4362
     32 C          65.2269   90.2277   14.8257 C.3     1  UNL1        0.0342
     33 C          64.9221   90.8429   13.4921 C.ar    1  UNL1        0.0124
     34 C          65.8313   91.8925   12.9250 C.ar    1  UNL1       -0.0012
     35 C          65.5266   92.5078   11.5913 C.ar    1  UNL1        0.0003
     36 C          64.3126   92.0734   10.8248 C.ar    1  UNL1       -0.0012
     37 C          63.4034   91.0238   11.3919 C.ar    1  UNL1        0.0124
     38 C          62.1895   90.5894   10.6254 C.3     1  UNL1        0.0342
     39 C          63.7082   90.4085   12.7255 C.ar    1  UNL1        0.1391
     40 C          66.4358   93.5575   11.0242 C.2     1  UNL1        0.0109
     41 C          65.8579   94.7532   10.3270 C.2     1  UNL1        0.0780
     42 C          66.7672   95.8028    9.7599 C.1     1  UNL1        0.1011
     43 N          67.6764   96.8525    9.1929 N.1     1  UNL1       -0.1908
@<TRIPOS>BOND
     1    32    33    1
     2    33    34   ar
     3    34    35   ar
     4    35    40    1
     5    40    41    2
     6    41    42    1
     7    42    43    3
     8    35    36   ar
     9    36    37   ar
    10    37    38    1
    11    37    39   ar
    12    39    31    1
    13    31     1    1
    14     1     2   ar
    15     2     3   ar
    16     3    10    1
    17    10    12    1
    18    12    13    1
    19    13    14    1
    20    14    15    1
    21    15    18    1
    22    18    19    1
    23    19    20   ar
    24    20    21   ar
    25    21    22   ar
    26    22    25    1
    27    25    26    1
    28    25    27    2
    29    25    28    2
    30    22    23   ar
    31    23    24   ar
    32    15    16    1
    33    16    17    1
    34     3     4   ar
    35     4     5   ar
    36     5     6   ar
    37     6     7   ar
    38     7     8   ar
    39     8     9   ar
    40    39    33   ar
    41     9     1   ar
    42    17    12    1
    43     9     5   ar
    44    24    19   ar
    45    10    11    1
    46    26    29    1
    47    26    30    1
@<TRIPOS>MOLECULE
*****
 43 47 0 0 0
SMALL
GASTEIGER

@<TRIPOS>ATOM
      1 C          60.6007   87.6065    9.9184 C.ar    1  UNL1        0.2394
      2 N          59.6185   88.4131    9.1217 N.ar    1  UNL1       -0.1782
      3 C          59.4190   88.1245    7.6634 C.ar    1  UNL1        0.2194
      4 N          60.2017   87.0292    7.0016 N.ar    1  UNL1       -0.2131
      5 C          61.1839   86.2226    7.7983 C.ar    1  UNL1        0.0952
      6 C          62.0913   85.0892    7.4217 C.ar    1  UNL1        0.0268
      7 C          62.8516   84.6773    8.6473 C.ar    1  UNL1        0.0372
      8 S          62.4141   85.5561    9.7814 S.2     1  UNL1       -0.0803
      9 C          61.3833   86.5113    9.2567 C.ar    1  UNL1        0.1008
     10 N          58.4367   88.9311    6.8667 N.pl3   1  UNL1       -0.3045
     11 H          57.4728   88.7445    6.9393 H       1  UNL1        0.1496
     12 C          58.9232   90.0221    5.9594 C.3     1  UNL1        0.0745
     13 C          57.9407   90.9490    5.3071 C.3     1  UNL1        0.0369
     14 C          58.4272   92.0399    4.3998 C.3     1  UNL1        0.0741
     15 N          59.8962   92.2040    4.1448 N.3     1  UNL1       -0.2689
     16 C          60.8787   91.2771    4.7971 C.3     1  UNL1        0.0741
     17 C          60.3922   90.1862    5.7044 C.3     1  UNL1        0.0369
     18 C          60.3827   93.2949    3.2375 C.3     1  UNL1        0.0991
     19 C          60.0116   93.2829    1.7842 C.ar    1  UNL1       -0.0061
     20 C          59.3844   94.4944    1.1603 C.ar    1  UNL1       -0.0015
     21 C          59.0132   94.4823   -0.2930 C.ar    1  UNL1        0.0196
     22 C          59.2692   93.2590   -1.1224 C.ar    1  UNL1        0.1217
     23 C          59.8964   92.0476   -0.4985 C.ar    1  UNL1        0.0196
     24 C          60.2676   92.0596    0.9548 C.ar    1  UNL1       -0.0015
     25 S          58.8980   93.2470   -2.5757 S.O2    1  UNL1        0.0572
     26 N          58.5268   93.2350   -4.0290 N.3     1  UNL1       -0.2035
     27 O          57.4770   92.9356   -2.2102 O.2     1  UNL1       -0.1532
     28 O          60.3191   93.5585   -2.9412 O.2     1  UNL1       -0.1532
     29 H          57.5317   93.0327   -4.1240 H       1  UNL1        0.1442
     30 H          59.0674   92.5175   -4.5120 H       1  UNL1        0.1442
     31 O          60.8002   87.8951   11.3768 O.3     1  UNL1       -0.4362
     32 C          60.4732   90.8226   10.8082 C.3     1  UNL1        0.0342
     33 C          61.6940   90.3299   11.5271 C.ar    1  UNL1        0.0124
     34 C          62.7514   91.3010   11.9616 C.ar    1  UNL1       -0.0012
     35 C          63.9724   90.8083   12.6806 C.ar    1  UNL1        0.0003
     36 C          64.1358   89.3447   12.9648 C.ar    1  UNL1       -0.0012
     37 C          63.0784   88.3735   12.5303 C.ar    1  UNL1        0.0124
     38 C          63.2419   86.9099   12.8145 C.3     1  UNL1        0.0342
     39 C          61.8576   88.8662   11.8114 C.ar    1  UNL1        0.1391
     40 C          65.0298   91.7795   13.1151 C.2     1  UNL1        0.0109
     41 C          66.0787   91.3552   14.0999 C.2     1  UNL1        0.0780
     42 C          67.1361   92.3264   14.5344 C.1     1  UNL1        0.1011
     43 N          68.1934   93.2976   14.9690 N.1     1  UNL1       -0.1908
@<TRIPOS>BOND
     1    32    33    1
     2    33    34   ar
     3    34    35   ar
     4    35    40    1
     5    40    41    2
     6    41    42    1
     7    42    43    3
     8    35    36   ar
     9    36    37   ar
    10    37    38    1
    11    37    39   ar
    12    39    31    1
    13    31     1    1
    14     1     2   ar
    15     2     3   ar
    16     3    10    1
    17    10    12    1
    18    12    13    1
    19    13    14    1
    20    14    15    1
    21    15    18    1
    22    18    19    1
    23    19    20   ar
    24    20    21   ar
    25    21    22   ar
    26    22    25    1
    27    25    26    1
    28    25    27    2
    29    25    28    2
    30    22    23   ar
    31    23    24   ar
    32    15    16    1
    33    16    17    1
    34     3     4   ar
    35     4     5   ar
    36     5     6   ar
    37     6     7   ar
    38     7     8   ar
    39     8     9   ar
    40    39    33   ar
    41     9     1   ar
    42    17    12    1
    43     9     5   ar
    44    24    19   ar
    45    10    11    1
    46    26    29    1
    47    26    30    1
@<TRIPOS>MOLECULE
*****
 43 47 0 0 0
SMALL
GASTEIGER

@<TRIPOS>ATOM
      1 C          62.5887   87.8448   12.8982 C.ar    1  UNL1        0.2394
      2 N          61.9764   87.4762   11.5794 N.ar    1  UNL1       -0.1782
      3 C          62.2281   86.1208   10.9883 C.ar    1  UNL1        0.2194
      4 N          63.0922   85.1339   11.7160 N.ar    1  UNL1       -0.2131
      5 C          63.7045   85.5025   13.0348 C.ar    1  UNL1        0.0952
      6 C          64.5929   84.7441   13.9758 C.ar    1  UNL1        0.0268
      7 C          64.8902   85.6309   15.1485 C.ar    1  UNL1        0.0372
      8 S          64.1856   86.9373   14.9322 S.2     1  UNL1       -0.0803
      9 C          63.4527   86.8579   13.6259 C.ar    1  UNL1        0.1008
     10 N          61.6158   85.7522    9.6694 N.pl3   1  UNL1       -0.3045
     11 H          61.7343   84.8440    9.3084 H       1  UNL1        0.1496
     12 C          60.8229   86.7674    8.9008 C.3     1  UNL1        0.0745
     13 C          60.9398   88.2238    9.2401 C.3     1  UNL1        0.0369
     14 C          60.1469   89.2390    8.4715 C.3     1  UNL1        0.0741
     15 N          59.2372   88.7977    7.3635 N.3     1  UNL1       -0.2689
     16 C          59.1203   87.3413    7.0241 C.3     1  UNL1        0.0741
     17 C          59.9132   86.3261    7.7928 C.3     1  UNL1        0.0369
     18 C          58.4443   89.8128    6.5948 C.3     1  UNL1        0.0991
     19 C          59.1166   90.6577    5.5535 C.ar    1  UNL1       -0.0061
     20 C          60.5903   90.5176    5.3110 C.ar    1  UNL1       -0.0015
     21 C          61.2626   91.3624    4.2698 C.ar    1  UNL1        0.0196
     22 C          60.4613   92.3474    3.4711 C.ar    1  UNL1        0.1217
     23 C          58.9877   92.4874    3.7136 C.ar    1  UNL1        0.0196
     24 C          58.3154   91.6426    4.7548 C.ar    1  UNL1       -0.0015
     25 S          61.1337   93.1922    2.4299 S.O2    1  UNL1        0.0572
     26 N          61.8060   94.0371    1.3886 N.3     1  UNL1       -0.2035
     27 O          62.4001   92.4093    2.6124 O.2     1  UNL1       -0.1532
     28 O          59.8673   93.9751    2.2474 O.2     1  UNL1       -0.1532
     29 H          62.7703   93.7266    1.2696 H       1  UNL1        0.1442
     30 H          61.7972   95.0130    1.6850 H       1  UNL1        0.1442
     31 O          62.3369   89.2002   13.4893 O.3     1  UNL1       -0.4362
     32 C          63.3630   89.6871   16.2660 C.3     1  UNL1        0.0342
     33 C          63.9931   90.3891   15.0998 C.ar    1  UNL1        0.0124
     34 C          65.1362   91.3346   15.3218 C.ar    1  UNL1       -0.0012
     35 C          65.7663   92.0366   14.1555 C.ar    1  UNL1        0.0003
     36 C          65.2533   91.7932   12.7672 C.ar    1  UNL1       -0.0012
     37 C          64.1101   90.8477   12.5451 C.ar    1  UNL1        0.0124
     38 C          63.5971   90.6042   11.1568 C.3     1  UNL1        0.0342
     39 C          63.4801   90.1457   13.7114 C.ar    1  UNL1        0.1391
     40 C          66.9095   92.9821   14.3777 C.2     1  UNL1        0.0109
     41 C          67.6206   93.0018   15.6982 C.2     1  UNL1        0.0780
     42 C          68.7638   93.9473   15.9203 C.1     1  UNL1        0.1011
     43 N          69.9069   94.8928   16.1424 N.1     1  UNL1       -0.1908
@<TRIPOS>BOND
     1    32    33    1
     2    33    34   ar
     3    34    35   ar
     4    35    40    1
     5    40    41    2
     6    41    42    1
     7    42    43    3
     8    35    36   ar
     9    36    37   ar
    10    37    38    1
    11    37    39   ar
    12    39    31    1
    13    31     1    1
    14     1     2   ar
    15     2     3   ar
    16     3    10    1
    17    10    12    1
    18    12    13    1
    19    13    14    1
    20    14    15    1
    21    15    18    1
    22    18    19    1
    23    19    20   ar
    24    20    21   ar
    25    21    22   ar
    26    22    25    1
    27    25    26    1
    28    25    27    2
    29    25    28    2
    30    22    23   ar
    31    23    24   ar
    32    15    16    1
    33    16    17    1
    34     3     4   ar
    35     4     5   ar
    36     5     6   ar
    37     6     7   ar
    38     7     8   ar
    39     8     9   ar
    40    39    33   ar
    41     9     1   ar
    42    17    12    1
    43     9     5   ar
    44    24    19   ar
    45    10    11    1
    46    26    29    1
    47    26    30    1
@<TRIPOS>MOLECULE
*****
 43 47 0 0 0
SMALL
GASTEIGER

@<TRIPOS>ATOM
      1 C          60.6592   88.8340   10.2299 C.ar    1  UNL1        0.2394
      2 N          59.7814   89.1984    9.0695 N.ar    1  UNL1       -0.1782
      3 C          59.6370   88.2544    7.9129 C.ar    1  UNL1        0.2194
      4 N          60.3704   86.9458    7.9166 N.ar    1  UNL1       -0.2131
      5 C          61.2482   86.5814    9.0770 C.ar    1  UNL1        0.0952
      6 C          62.0882   85.3711    9.3588 C.ar    1  UNL1        0.0268
      7 C          62.7518   85.5672   10.6897 C.ar    1  UNL1        0.0372
      8 S          62.3219   86.8986   11.2304 S.2     1  UNL1       -0.0803
      9 C          61.3926   87.5255   10.2337 C.ar    1  UNL1        0.1008
     10 N          58.7591   88.6188    6.7523 N.pl3   1  UNL1       -0.3045
     11 H          58.0090   88.0334    6.4997 H       1  UNL1        0.1496
     12 C          59.0243   89.8751    5.9768 C.3     1  UNL1        0.0745
     13 C          57.8858   90.7714    5.5889 C.3     1  UNL1        0.0369
     14 C          58.1510   92.0277    4.8134 C.3     1  UNL1        0.0741
     15 N          59.5546   92.3877    4.4258 N.3     1  UNL1       -0.2689
     16 C          60.6931   91.4914    4.8138 C.3     1  UNL1        0.0741
     17 C          60.4279   90.2351    5.5893 C.3     1  UNL1        0.0369
     18 C          59.8199   93.6440    3.6503 C.3     1  UNL1        0.0991
     19 C          60.3923   93.5641    2.2661 C.ar    1  UNL1       -0.0061
     20 C          59.4891   93.6740    1.0735 C.ar    1  UNL1       -0.0015
     21 C          60.0615   93.5940   -0.3106 C.ar    1  UNL1        0.0196
     22 C          61.5370   93.4043   -0.5023 C.ar    1  UNL1        0.1217
     23 C          62.4402   93.2944    0.6903 C.ar    1  UNL1        0.0196
     24 C          61.8678   93.3743    2.0744 C.ar    1  UNL1       -0.0015
     25 S          62.1094   93.3244   -1.8865 S.O2    1  UNL1        0.0572
     26 N          62.6818   93.2445   -3.2707 N.3     1  UNL1       -0.2035
     27 O          63.4930   93.4538   -1.3218 O.2     1  UNL1       -0.1532
     28 O          60.7258   93.1949   -2.4511 O.2     1  UNL1       -0.1532
     29 H          63.6986   93.3093   -3.2224 H       1  UNL1        0.1442
     30 H          62.3184   94.0134   -3.8338 H       1  UNL1        0.1442
     31 O          60.8036   89.7781   11.3866 O.3     1  UNL1       -0.4362
     32 C          61.8536   89.4688   14.1798 C.3     1  UNL1        0.0342
     33 C          62.6789   90.1694   13.1416 C.ar    1  UNL1        0.0124
     34 C          64.0293   90.7154   13.4999 C.ar    1  UNL1       -0.0012
     35 C          64.8546   91.4161   12.4617 C.ar    1  UNL1        0.0003
     36 C          64.3297   91.5708   11.0651 C.ar    1  UNL1       -0.0012
     37 C          62.9793   91.0247   10.7067 C.ar    1  UNL1        0.0124
     38 C          62.4543   91.1794    9.3102 C.3     1  UNL1        0.0342
     39 C          62.1540   90.3241   11.7449 C.ar    1  UNL1        0.1391
     40 C          66.2050   91.9622   12.8201 C.2     1  UNL1        0.0109
     41 C          66.6248   92.0404   14.2580 C.2     1  UNL1        0.0780
     42 C          67.9752   92.5864   14.6164 C.1     1  UNL1        0.1011
     43 N          69.3255   93.1325   14.9748 N.1     1  UNL1       -0.1908
@<TRIPOS>BOND
     1    32    33    1
     2    33    34   ar
     3    34    35   ar
     4    35    40    1
     5    40    41    2
     6    41    42    1
     7    42    43    3
     8    35    36   ar
     9    36    37   ar
    10    37    38    1
    11    37    39   ar
    12    39    31    1
    13    31     1    1
    14     1     2   ar
    15     2     3   ar
    16     3    10    1
    17    10    12    1
    18    12    13    1
    19    13    14    1
    20    14    15    1
    21    15    18    1
    22    18    19    1
    23    19    20   ar
    24    20    21   ar
    25    21    22   ar
    26    22    25    1
    27    25    26    1
    28    25    27    2
    29    25    28    2
    30    22    23   ar
    31    23    24   ar
    32    15    16    1
    33    16    17    1
    34     3     4   ar
    35     4     5   ar
    36     5     6   ar
    37     6     7   ar
    38     7     8   ar
    39     8     9   ar
    40    39    33   ar
    41     9     1   ar
    42    17    12    1
    43     9     5   ar
    44    24    19   ar
    45    10    11    1
    46    26    29    1
    47    26    30    1
@<TRIPOS>MOLECULE
*****
 43 47 0 0 0
SMALL
GASTEIGER

@<TRIPOS>ATOM
      1 C          63.4903   83.4844   12.1767 C.ar    1  UNL1        0.2394
      2 N          63.6713   84.3556   13.3843 N.ar    1  UNL1       -0.1782
      3 C          63.4606   83.7884   14.7567 C.ar    1  UNL1        0.2194
      4 N          63.0688   82.3498   14.9218 N.ar    1  UNL1       -0.2131
      5 C          62.8878   81.4786   13.7142 C.ar    1  UNL1        0.0952
      6 C          62.5082   80.0350   13.5659 C.ar    1  UNL1        0.0268
      7 C          62.4843   79.7101   12.1017 C.ar    1  UNL1        0.0372
      8 S          62.8492   80.9529   11.3451 S.2     1  UNL1       -0.0803
      9 C          63.0985   82.0459   12.3417 C.ar    1  UNL1        0.1008
     10 N          63.6416   84.6597   15.9643 N.pl3   1  UNL1       -0.3045
     11 H          63.7385   84.2522   16.8553 H       1  UNL1        0.1496
     12 C          63.6750   86.1518   15.8144 C.3     1  UNL1        0.0745
     13 C          64.3691   86.7720   14.6381 C.3     1  UNL1        0.0369
     14 C          64.4025   88.2642   14.4882 C.3     1  UNL1        0.0741
     15 N          63.7419   89.1361   15.5145 N.3     1  UNL1       -0.2689
     16 C          63.0478   88.5158   16.6907 C.3     1  UNL1        0.0741
     17 C          63.0144   87.0237   16.8407 C.3     1  UNL1        0.0369
     18 C          63.7752   90.6282   15.3646 C.3     1  UNL1        0.0991
     19 C          65.0887   91.3526   15.3638 C.ar    1  UNL1       -0.0061
     20 C          66.0852   91.0978   14.2720 C.ar    1  UNL1       -0.0015
     21 C          67.3986   91.8222   14.2713 C.ar    1  UNL1        0.0196
     22 C          67.7156   92.8015   15.3624 C.ar    1  UNL1        0.1217
     23 C          66.7192   93.0564   16.4542 C.ar    1  UNL1        0.0196
     24 C          65.4057   92.3320   16.4549 C.ar    1  UNL1       -0.0015
     25 S          69.0291   93.5260   15.3616 S.O2    1  UNL1        0.0572
     26 N          70.3425   94.2504   15.3609 N.3     1  UNL1       -0.2035
     27 O          69.5264   92.6230   14.2720 O.2     1  UNL1       -0.1532
     28 O          68.5317   94.4289   16.4513 O.2     1  UNL1       -0.1532
     29 H          70.9591   93.8357   14.6621 H       1  UNL1        0.1442
     30 H          70.7732   94.1744   16.2823 H       1  UNL1        0.1442
     31 O          63.7010   84.0517   10.8042 O.3     1  UNL1       -0.4362
     32 C          61.9099   85.5738   12.6684 C.3     1  UNL1        0.0342
     33 C          61.8511   85.8342   11.1924 C.ar    1  UNL1        0.0124
     34 C          60.8969   86.8557   10.6484 C.ar    1  UNL1       -0.0012
     35 C          60.8381   87.1161    9.1722 C.ar    1  UNL1        0.0003
     36 C          61.7336   86.3551    8.2402 C.ar    1  UNL1       -0.0012
     37 C          62.6880   85.3335    8.7842 C.ar    1  UNL1        0.0124
     38 C          63.5834   84.5725    7.8521 C.3     1  UNL1        0.0342
     39 C          62.7467   85.0732   10.2602 C.ar    1  UNL1        0.1391
     40 C          59.8838   88.1376    8.6283 C.2     1  UNL1        0.0109
     41 C          59.8953   88.4709    7.1659 C.2     1  UNL1        0.0780
     42 C          58.9409   89.4925    6.6220 C.1     1  UNL1        0.1011
     43 N          57.9866   90.5140    6.0781 N.1     1  UNL1       -0.1908
@<TRIPOS>BOND
     1    32    33    1
     2    33    34   ar
     3    34    35   ar
     4    35    40    1
     5    40    41    2
     6    41    42    1
     7    42    43    3
     8    35    36   ar
     9    36    37   ar
    10    37    38    1
    11    37    39   ar
    12    39    31    1
    13    31     1    1
    14     1     2   ar
    15     2     3   ar
    16     3    10    1
    17    10    12    1
    18    12    13    1
    19    13    14    1
    20    14    15    1
    21    15    18    1
    22    18    19    1
    23    19    20   ar
    24    20    21   ar
    25    21    22   ar
    26    22    25    1
    27    25    26    1
    28    25    27    2
    29    25    28    2
    30    22    23   ar
    31    23    24   ar
    32    15    16    1
    33    16    17    1
    34     3     4   ar
    35     4     5   ar
    36     5     6   ar
    37     6     7   ar
    38     7     8   ar
    39     8     9   ar
    40    39    33   ar
    41     9     1   ar
    42    17    12    1
    43     9     5   ar
    44    24    19   ar
    45    10    11    1
    46    26    29    1
    47    26    30    1
@<TRIPOS>MOLECULE
*****
 43 47 0 0 0
SMALL
GASTEIGER

@<TRIPOS>ATOM
      1 C          60.7896   87.1160   10.0528 C.ar    1  UNL1        0.2394
      2 N          59.6905   87.7558    9.2575 N.ar    1  UNL1       -0.1782
      3 C          59.5278   87.4268    7.8031 C.ar    1  UNL1        0.2194
      4 N          60.4642   86.4579    7.1439 N.ar    1  UNL1       -0.2131
      5 C          61.5633   85.8181    7.9392 C.ar    1  UNL1        0.0952
      6 C          62.6307   84.8331    7.5645 C.ar    1  UNL1        0.0268
      7 C          63.4532   84.5533    8.7874 C.ar    1  UNL1        0.0372
      8 S          62.8940   85.3654    9.9178 S.2     1  UNL1       -0.0803
      9 C          61.7260   86.1471    9.3936 C.ar    1  UNL1        0.1008
     10 N          58.4286   88.0667    7.0078 N.pl3   1  UNL1       -0.3045
     11 H          57.5434   87.6386    6.9583 H       1  UNL1        0.1496
     12 C          58.6781   89.3588    6.2880 C.3     1  UNL1        0.0745
     13 C          57.5225   90.2123    5.8565 C.3     1  UNL1        0.0369
     14 C          57.7720   91.5044    5.1367 C.3     1  UNL1        0.0741
     15 N          59.1771   91.9431    4.8484 N.3     1  UNL1       -0.2689
     16 C          60.3327   91.0897    5.2799 C.3     1  UNL1        0.0741
     17 C          60.0832   89.7976    5.9997 C.3     1  UNL1        0.0369
     18 C          59.4267   93.2353    4.1285 C.3     1  UNL1        0.0991
     19 C          60.4323   93.2924    3.0169 C.ar    1  UNL1       -0.0061
     20 C          60.2348   94.2451    1.8752 C.ar    1  UNL1       -0.0015
     21 C          61.2403   94.3021    0.7636 C.ar    1  UNL1        0.0196
     22 C          62.4433   93.4065    0.7937 C.ar    1  UNL1        0.1217
     23 C          62.6407   92.4539    1.9354 C.ar    1  UNL1        0.0196
     24 C          61.6352   92.3968    3.0470 C.ar    1  UNL1       -0.0015
     25 S          63.4488   93.4636   -0.3179 S.O2    1  UNL1        0.0572
     26 N          64.4543   93.5207   -1.4295 N.3     1  UNL1       -0.2035
     27 O          62.4380   94.1378   -1.1975 O.2     1  UNL1       -0.1532
     28 O          64.4595   92.7894    0.5618 O.2     1  UNL1       -0.1532
     29 H          64.0342   93.9659   -2.2454 H       1  UNL1        0.1442
     30 H          64.7474   92.5743   -1.6718 H       1  UNL1        0.1442
     31 O          60.9523   87.4450   11.5072 O.3     1  UNL1       -0.4362
     32 C          60.6101   90.3087   10.6811 C.3     1  UNL1        0.0342
     33 C          61.7848   89.9060   11.5225 C.ar    1  UNL1        0.0124
     34 C          62.7884   90.9352   11.9510 C.ar    1  UNL1       -0.0012
     35 C          63.9631   90.5325   12.7925 C.ar    1  UNL1        0.0003
     36 C          64.1342   89.1007   13.2054 C.ar    1  UNL1       -0.0012
     37 C          63.1306   88.0715   12.7770 C.ar    1  UNL1        0.0124
     38 C          63.3017   86.6397   13.1900 C.3     1  UNL1        0.0342
     39 C          61.9559   88.4741   11.9356 C.ar    1  UNL1        0.1391
     40 C          64.9668   91.5617   13.2209 C.2     1  UNL1        0.0109
     41 C          65.7486   91.3658   14.4858 C.2     1  UNL1        0.0780
     42 C          66.7522   92.3951   14.9143 C.1     1  UNL1        0.1011
     43 N          67.7558   93.4243   15.3426 N.1     1  UNL1       -0.1908
@<TRIPOS>BOND
     1    32    33    1
     2    33    34   ar
     3    34    35   ar
     4    35    40    1
     5    40    41    2
     6    41    42    1
     7    42    43    3
     8    35    36   ar
     9    36    37   ar
    10    37    38    1
    11    37    39   ar
    12    39    31    1
    13    31     1    1
    14     1     2   ar
    15     2     3   ar
    16     3    10    1
    17    10    12    1
    18    12    13    1
    19    13    14    1
    20    14    15    1
    21    15    18    1
    22    18    19    1
    23    19    20   ar
    24    20    21   ar
    25    21    22   ar
    26    22    25    1
    27    25    26    1
    28    25    27    2
    29    25    28    2
    30    22    23   ar
    31    23    24   ar
    32    15    16    1
    33    16    17    1
    34     3     4   ar
    35     4     5   ar
    36     5     6   ar
    37     6     7   ar
    38     7     8   ar
    39     8     9   ar
    40    39    33   ar
    41     9     1   ar
    42    17    12    1
    43     9     5   ar
    44    24    19   ar
    45    10    11    1
    46    26    29    1
    47    26    30    1
@<TRIPOS>MOLECULE
*****
 43 47 0 0 0
SMALL
GASTEIGER

@<TRIPOS>ATOM
      1 C          63.1310   86.8327   12.6237 C.ar    1  UNL1        0.2394
      2 N          62.1483   86.4300   11.5644 N.ar    1  UNL1       -0.1782
      3 C          61.4496   87.4794   10.7518 C.ar    1  UNL1        0.2194
      4 N          61.7334   88.9315   10.9984 N.ar    1  UNL1       -0.2131
      5 C          62.7161   89.3342   12.0577 C.ar    1  UNL1        0.0952
      6 C          63.1956   90.6769   12.5237 C.ar    1  UNL1        0.0268
      7 C          64.1907   90.4573   13.6244 C.ar    1  UNL1        0.0372
      8 S          64.3263   88.9789   13.8386 S.2     1  UNL1       -0.0803
      9 C          63.4149   88.2847   12.8704 C.ar    1  UNL1        0.1008
     10 N          60.4668   87.0767    9.6924 N.pl3   1  UNL1       -0.3045
     11 H          60.0955   86.1649    9.6864 H       1  UNL1        0.1496
     12 C          60.0499   88.0632    8.6421 C.3     1  UNL1        0.0745
     13 C          59.3523   87.5885    7.4020 C.3     1  UNL1        0.0369
     14 C          58.9354   88.5751    6.3518 C.3     1  UNL1        0.0741
     15 N          59.2161   90.0363    6.5417 N.3     1  UNL1       -0.2689
     16 C          59.9137   90.5109    7.7819 C.3     1  UNL1        0.0741
     17 C          60.3306   89.5244    8.8321 C.3     1  UNL1        0.0369
     18 C          58.7992   91.0229    5.4915 C.3     1  UNL1        0.0991
     19 C          59.8060   91.5416    4.5080 C.ar    1  UNL1       -0.0061
     20 C          59.4054   92.5787    3.5010 C.ar    1  UNL1       -0.0015
     21 C          60.4122   93.0974    2.5175 C.ar    1  UNL1        0.0196
     22 C          61.8196   92.5791    2.5410 C.ar    1  UNL1        0.1217
     23 C          62.2202   91.5420    3.5480 C.ar    1  UNL1        0.0196
     24 C          61.2134   91.0233    4.5315 C.ar    1  UNL1       -0.0015
     25 S          62.8264   93.0978    1.5576 S.O2    1  UNL1        0.0572
     26 N          63.8332   93.6165    0.5741 N.3     1  UNL1       -0.2035
     27 O          63.8597   92.1714    2.1268 O.2     1  UNL1       -0.1532
     28 O          61.7931   94.0242    0.9884 O.2     1  UNL1       -0.1532
     29 H          64.7239   93.1401    0.7161 H       1  UNL1        0.1442
     30 H          63.9581   94.6193    0.7123 H       1  UNL1        0.1442
     31 O          63.8298   85.7832   13.4364 O.3     1  UNL1       -0.4362
     32 C          62.4678   85.1331   16.0291 C.3     1  UNL1        0.0342
     33 C          62.5121   84.1143   14.9291 C.ar    1  UNL1        0.0124
     34 C          61.8755   82.7704   15.1255 C.ar    1  UNL1       -0.0012
     35 C          61.9198   81.7515   14.0254 C.ar    1  UNL1        0.0003
     36 C          62.6008   82.0766   12.7291 C.ar    1  UNL1       -0.0012
     37 C          63.2375   83.4205   12.5327 C.ar    1  UNL1        0.0124
     38 C          63.9184   83.7456   11.2364 C.3     1  UNL1        0.0342
     39 C          63.1931   84.4393   13.6327 C.ar    1  UNL1        0.1391
     40 C          61.2831   80.4075   14.2218 C.2     1  UNL1        0.0109
     41 C          59.7886   80.2809   14.2379 C.2     1  UNL1        0.0780
     42 C          59.1519   78.9369   14.4343 C.1     1  UNL1        0.1011
     43 N          58.5153   77.5930   14.6307 N.1     1  UNL1       -0.1908
@<TRIPOS>BOND
     1    32    33    1
     2    33    34   ar
     3    34    35   ar
     4    35    40    1
     5    40    41    2
     6    41    42    1
     7    42    43    3
     8    35    36   ar
     9    36    37   ar
    10    37    38    1
    11    37    39   ar
    12    39    31    1
    13    31     1    1
    14     1     2   ar
    15     2     3   ar
    16     3    10    1
    17    10    12    1
    18    12    13    1
    19    13    14    1
    20    14    15    1
    21    15    18    1
    22    18    19    1
    23    19    20   ar
    24    20    21   ar
    25    21    22   ar
    26    22    25    1
    27    25    26    1
    28    25    27    2
    29    25    28    2
    30    22    23   ar
    31    23    24   ar
    32    15    16    1
    33    16    17    1
    34     3     4   ar
    35     4     5   ar
    36     5     6   ar
    37     6     7   ar
    38     7     8   ar
    39     8     9   ar
    40    39    33   ar
    41     9     1   ar
    42    17    12    1
    43     9     5   ar
    44    24    19   ar
    45    10    11    1
    46    26    29    1
    47    26    30    1
