@<TRIPOS>MOLECULE
*****
 23 25 0 0 0
SMALL
GASTEIGER

@<TRIPOS>ATOM
      1 C          63.0015   85.2098   12.0115 C.ar    1  UNL1       -0.0144
      2 C          63.5293   85.9370   13.2126 C.ar    1  UNL1        0.0051
      3 S          63.8524   84.9190   14.2658 S.2     1  UNL1       -0.0915
      4 C          63.5243   83.5626   13.7157 C.ar    1  UNL1        0.0288
      5 C          63.6365   82.1871   14.3034 C.ar    1  UNL1        0.0065
      6 C          63.2228   80.9914   13.4978 C.ar    1  UNL1        0.0005
      7 C          62.6969   81.1711   12.1046 C.ar    1  UNL1        0.0000
      8 C          62.5847   82.5466   11.5169 C.ar    1  UNL1        0.0002
      9 C          62.9984   83.7423   12.3224 C.ar    1  UNL1        0.0025
     10 C          62.8732   85.1786    9.4167 C.3     1  UNL1        0.0110
     11 C          62.5551   85.8394   10.7253 C.3     1  UNL1        0.0627
     12 C          61.7906   87.1297   10.7476 C.ar    1  UNL1        0.0629
     13 C          62.2722   88.3008    9.9433 C.ar    1  UNL1        0.0174
     14 C          61.5078   89.5912    9.9655 C.ar    1  UNL1        0.0325
     15 C          60.2617   89.7105   10.7920 C.ar    1  UNL1        0.1592
     16 F          59.4973   91.0009   10.8142 F       1  UNL1       -0.2025
     17 C          59.7801   88.5396   11.5962 C.ar    1  UNL1        0.1280
     18 N          60.5446   87.2492   11.5740 N.ar    1  UNL1       -0.2455
     19 C          63.7033   87.4215   13.3384 C.3     1  UNL1        0.0499
     20 C          64.2957   88.0041   14.5872 C.3     1  UNL1        0.0774
     21 N          63.6607   89.2009   15.2310 N.3     1  UNL1       -0.2700
     22 C          63.1233   89.1043   16.6281 C.3     1  UNL1        0.0897
     23 C          63.5631   90.4943   14.4777 C.3     1  UNL1        0.0897
@<TRIPOS>BOND
     1    11    10    1
     2    11    12    1
     3    12    13   ar
     4    13    14   ar
     5    14    15   ar
     6    15    16    1
     7    15    17   ar
     8    17    18   ar
     9    11     1    1
    10     1     2   ar
    11     2    19    1
    12    19    20    1
    13    20    21    1
    14    21    22    1
    15    21    23    1
    16     2     3   ar
    17     3     4   ar
    18     4     5   ar
    19     5     6   ar
    20     6     7   ar
    21     7     8   ar
    22     8     9   ar
    23    18    12   ar
    24     9     1   ar
    25     9     4   ar
@<TRIPOS>MOLECULE
*****
 23 25 0 0 0
SMALL
GASTEIGER

@<TRIPOS>ATOM
      1 C          61.4362   88.1948   10.8317 C.ar    1  UNL1       -0.0144
      2 C          62.2021   86.9550   11.1868 C.ar    1  UNL1        0.0051
      3 S          61.9585   85.9362   10.1131 S.2     1  UNL1       -0.0915
      4 C          61.0421   86.5465    9.0944 C.ar    1  UNL1        0.0288
      5 C          60.4598   86.0114    7.8198 C.ar    1  UNL1        0.0065
      6 C          59.5547   86.8722    6.9893 C.ar    1  UNL1        0.0005
      7 C          59.2319   88.2681    7.4334 C.ar    1  UNL1        0.0000
      8 C          59.8142   88.8032    8.7080 C.ar    1  UNL1        0.0002
      9 C          60.7193   87.9424    9.5385 C.ar    1  UNL1        0.0025
     10 C          60.1295   89.8719   12.3251 C.3     1  UNL1        0.0110
     11 C          61.3945   89.4643   11.6296 C.3     1  UNL1        0.0627
     12 C          62.6178   90.3263   11.7321 C.ar    1  UNL1        0.0629
     13 C          63.1296   91.0491   10.5214 C.ar    1  UNL1        0.0174
     14 C          64.3529   91.9111   10.6239 C.ar    1  UNL1        0.0325
     15 C          65.0644   92.0503   11.9370 C.ar    1  UNL1        0.1592
     16 F          66.2877   92.9123   12.0395 F       1  UNL1       -0.2025
     17 C          64.5527   91.3275   13.1477 C.ar    1  UNL1        0.1280
     18 N          63.3294   90.4655   13.0452 N.ar    1  UNL1       -0.2455
     19 C          63.0608   86.7669   12.4022 C.3     1  UNL1        0.0499
     20 C          63.2696   85.3934   12.9678 C.3     1  UNL1        0.0774
     21 N          63.2903   85.1893   14.4537 N.3     1  UNL1       -0.2700
     22 C          64.1921   86.0251   15.3130 C.3     1  UNL1        0.0897
     23 C          62.4094   84.1496   15.0804 C.3     1  UNL1        0.0897
@<TRIPOS>BOND
     1    11    10    1
     2    11    12    1
     3    12    13   ar
     4    13    14   ar
     5    14    15   ar
     6    15    16    1
     7    15    17   ar
     8    17    18   ar
     9    11     1    1
    10     1     2   ar
    11     2    19    1
    12    19    20    1
    13    20    21    1
    14    21    22    1
    15    21    23    1
    16     2     3   ar
    17     3     4   ar
    18     4     5   ar
    19     5     6   ar
    20     6     7   ar
    21     7     8   ar
    22     8     9   ar
    23    18    12   ar
    24     9     1   ar
    25     9     4   ar
@<TRIPOS>MOLECULE
*****
 23 25 0 0 0
SMALL
GASTEIGER

@<TRIPOS>ATOM
      1 C          63.3985   87.0695   12.9262 C.ar    1  UNL1       -0.0144
      2 C          63.5971   88.5429   13.1252 C.ar    1  UNL1        0.0051
      3 S          62.9297   89.2582   11.9882 S.2     1  UNL1       -0.0915
      4 C          62.3186   88.2270   11.0865 C.ar    1  UNL1        0.0288
      5 C          61.5357   88.3449    9.8125 C.ar    1  UNL1        0.0065
      6 C          61.0426   87.1102    9.1182 C.ar    1  UNL1        0.0005
      7 C          61.3323   85.7574    9.6979 C.ar    1  UNL1        0.0000
      8 C          62.1152   85.6394   10.9720 C.ar    1  UNL1        0.0002
      9 C          62.6083   86.8742   11.6663 C.ar    1  UNL1        0.0025
     10 C          64.7075   86.3301   15.0452 C.3     1  UNL1        0.0110
     11 C          63.9017   85.9822   13.8288 C.3     1  UNL1        0.0627
     12 C          63.5991   84.5470   13.5150 C.ar    1  UNL1        0.0629
     13 C          64.4636   83.7920   12.5492 C.ar    1  UNL1        0.0174
     14 C          64.1610   82.3567   12.2353 C.ar    1  UNL1        0.0325
     15 C          62.9939   81.6764   12.8874 C.ar    1  UNL1        0.1592
     16 F          62.6914   80.2411   12.5735 F       1  UNL1       -0.2025
     17 C          62.1295   82.4313   13.8531 C.ar    1  UNL1        0.1280
     18 N          62.4320   83.8666   14.1669 N.ar    1  UNL1       -0.2455
     19 C          64.3338   89.1877   14.2617 C.3     1  UNL1        0.0499
     20 C          64.0601   90.6191   14.6168 C.3     1  UNL1        0.0774
     21 N          65.0810   91.6754   14.3136 N.3     1  UNL1       -0.2700
     22 C          65.9019   92.2652   15.4220 C.3     1  UNL1        0.0897
     23 C          65.2810   92.1420   12.9022 C.3     1  UNL1        0.0897
@<TRIPOS>BOND
     1    11    10    1
     2    11    12    1
     3    12    13   ar
     4    13    14   ar
     5    14    15   ar
     6    15    16    1
     7    15    17   ar
     8    17    18   ar
     9    11     1    1
    10     1     2   ar
    11     2    19    1
    12    19    20    1
    13    20    21    1
    14    21    22    1
    15    21    23    1
    16     2     3   ar
    17     3     4   ar
    18     4     5   ar
    19     5     6   ar
    20     6     7   ar
    21     7     8   ar
    22     8     9   ar
    23    18    12   ar
    24     9     1   ar
    25     9     4   ar
@<TRIPOS>MOLECULE
*****
 23 25 0 0 0
SMALL
GASTEIGER

@<TRIPOS>ATOM
      1 C          63.2003   86.7255   12.5910 C.ar    1  UNL1       -0.0144
      2 C          62.3935   86.9197   11.3416 C.ar    1  UNL1        0.0051
      3 S          62.2939   88.3930   11.0784 S.2     1  UNL1       -0.0915
      4 C          63.0392   89.1095   12.1652 C.ar    1  UNL1        0.0288
      5 C          63.2802   90.5671   12.4244 C.ar    1  UNL1        0.0065
      6 C          64.0813   90.9941   13.6184 C.ar    1  UNL1        0.0005
      7 C          64.6416   89.9635   14.5533 C.ar    1  UNL1        0.0000
      8 C          64.4006   88.5059   14.2941 C.ar    1  UNL1        0.0002
      9 C          63.5995   88.0789   13.1001 C.ar    1  UNL1        0.0025
     10 C          63.9757   85.3548   14.6575 C.3     1  UNL1        0.0110
     11 C          63.5472   85.4091   13.2209 C.3     1  UNL1        0.0627
     12 C          63.4657   84.1471   12.4145 C.ar    1  UNL1        0.0629
     13 C          62.5005   83.0676   12.8062 C.ar    1  UNL1        0.0174
     14 C          62.4189   81.8055   11.9998 C.ar    1  UNL1        0.0325
     15 C          63.3025   81.6228   10.8014 C.ar    1  UNL1        0.1592
     16 F          63.2209   80.3607    9.9950 F       1  UNL1       -0.2025
     17 C          64.2676   82.7022   10.4097 C.ar    1  UNL1        0.1280
     18 N          64.3492   83.9643   11.2161 N.ar    1  UNL1       -0.2455
     19 C          61.7918   85.8315   10.5025 C.3     1  UNL1        0.0499
     20 C          62.1792   85.6958    9.0598 C.3     1  UNL1        0.0774
     21 N          61.1299   85.7746    7.9909 N.3     1  UNL1       -0.2700
     22 C          59.9087   86.6203    8.1996 C.3     1  UNL1        0.0897
     23 C          61.3018   85.0078    6.7132 C.3     1  UNL1        0.0897
@<TRIPOS>BOND
     1    11    10    1
     2    11    12    1
     3    12    13   ar
     4    13    14   ar
     5    14    15   ar
     6    15    16    1
     7    15    17   ar
     8    17    18   ar
     9    11     1    1
    10     1     2   ar
    11     2    19    1
    12    19    20    1
    13    20    21    1
    14    21    22    1
    15    21    23    1
    16     2     3   ar
    17     3     4   ar
    18     4     5   ar
    19     5     6   ar
    20     6     7   ar
    21     7     8   ar
    22     8     9   ar
    23    18    12   ar
    24     9     1   ar
    25     9     4   ar
@<TRIPOS>MOLECULE
*****
 23 25 0 0 0
SMALL
GASTEIGER

@<TRIPOS>ATOM
      1 C          62.2597   86.7262   11.6856 C.ar    1  UNL1       -0.0144
      2 C          62.6821   85.3937   12.2297 C.ar    1  UNL1        0.0051
      3 S          63.6282   85.6368   13.3681 S.2     1  UNL1       -0.0915
      4 C          63.7905   87.1194   13.5275 C.ar    1  UNL1        0.0288
      5 C          64.5992   87.9434   14.4851 C.ar    1  UNL1        0.0065
      6 C          64.5621   89.4406   14.4029 C.ar    1  UNL1        0.0005
      7 C          63.7163   90.1139   13.3630 C.ar    1  UNL1        0.0000
      8 C          62.9076   89.2900   12.4054 C.ar    1  UNL1        0.0002
      9 C          62.9447   87.7928   12.4876 C.ar    1  UNL1        0.0025
     10 C          60.1664   87.9020   10.6927 C.3     1  UNL1        0.0110
     11 C          61.3176   86.9525   10.5404 C.3     1  UNL1        0.0627
     12 C          61.5267   86.2293    9.2431 C.ar    1  UNL1        0.0629
     13 C          62.8838   85.6950    8.8925 C.ar    1  UNL1        0.0174
     14 C          63.0930   84.9718    7.5951 C.ar    1  UNL1        0.0325
     15 C          61.9449   84.7828    6.6483 C.ar    1  UNL1        0.1592
     16 F          62.1541   84.0595    5.3509 F       1  UNL1       -0.2025
     17 C          60.5879   85.3170    6.9989 C.ar    1  UNL1        0.1280
     18 N          60.3787   86.0402    8.2963 N.ar    1  UNL1       -0.2455
     19 C          62.2366   84.0536   11.7243 C.3     1  UNL1        0.0499
     20 C          63.0589   82.8324   12.0116 C.3     1  UNL1        0.0774
     21 N          62.5960   81.8407   13.0372 N.3     1  UNL1       -0.2700
     22 C          62.1187   82.3155   14.3777 C.3     1  UNL1        0.0897
     23 C          62.6103   80.3742   12.7225 C.3     1  UNL1        0.0897
@<TRIPOS>BOND
     1    11    10    1
     2    11    12    1
     3    12    13   ar
     4    13    14   ar
     5    14    15   ar
     6    15    16    1
     7    15    17   ar
     8    17    18   ar
     9    11     1    1
    10     1     2   ar
    11     2    19    1
    12    19    20    1
    13    20    21    1
    14    21    22    1
    15    21    23    1
    16     2     3   ar
    17     3     4   ar
    18     4     5   ar
    19     5     6   ar
    20     6     7   ar
    21     7     8   ar
    22     8     9   ar
    23    18    12   ar
    24     9     1   ar
    25     9     4   ar
@<TRIPOS>MOLECULE
*****
 23 25 0 0 0
SMALL
GASTEIGER

@<TRIPOS>ATOM
      1 C          62.1370   86.3776   10.1964 C.ar    1  UNL1       -0.0144
      2 C          62.4137   87.5341   11.1107 C.ar    1  UNL1        0.0051
      3 S          61.5391   88.6776   10.6893 S.2     1  UNL1       -0.0915
      4 C          60.7219   88.2278    9.5146 C.ar    1  UNL1        0.0288
      5 C          59.6891   88.9289    8.6830 C.ar    1  UNL1        0.0065
      6 C          59.0258   88.2086    7.5468 C.ar    1  UNL1        0.0005
      7 C          59.3953   86.7871    7.2422 C.ar    1  UNL1        0.0000
      8 C          60.4281   86.0859    8.0738 C.ar    1  UNL1        0.0002
      9 C          61.0914   86.8063    9.2100 C.ar    1  UNL1        0.0025
     10 C          63.6069   84.5377    9.0988 C.3     1  UNL1        0.0110
     11 C          62.7910   85.0291   10.2578 C.3     1  UNL1        0.0627
     12 C          62.6293   84.1719   11.4780 C.ar    1  UNL1        0.0629
     13 C          62.5164   84.8079   12.8318 C.ar    1  UNL1        0.0174
     14 C          62.3546   83.9507   14.0521 C.ar    1  UNL1        0.0325
     15 C          62.3058   82.4574   13.9185 C.ar    1  UNL1        0.1592
     16 F          62.1441   81.6002   15.1388 F       1  UNL1       -0.2025
     17 C          62.4188   81.8214   12.5647 C.ar    1  UNL1        0.1280
     18 N          62.5805   82.6786   11.3445 N.ar    1  UNL1       -0.2455
     19 C          63.3930   87.5452   12.2469 C.3     1  UNL1        0.0499
     20 C          63.5914   88.7939   13.0538 C.3     1  UNL1        0.0774
     21 N          63.8353   88.7015   14.5310 N.3     1  UNL1       -0.2700
     22 C          64.3099   87.4124   15.1336 C.3     1  UNL1        0.0897
     23 C          63.6045   89.8981   15.4055 C.3     1  UNL1        0.0897
@<TRIPOS>BOND
     1    11    10    1
     2    11    12    1
     3    12    13   ar
     4    13    14   ar
     5    14    15   ar
     6    15    16    1
     7    15    17   ar
     8    17    18   ar
     9    11     1    1
    10     1     2   ar
    11     2    19    1
    12    19    20    1
    13    20    21    1
    14    21    22    1
    15    21    23    1
    16     2     3   ar
    17     3     4   ar
    18     4     5   ar
    19     5     6   ar
    20     6     7   ar
    21     7     8   ar
    22     8     9   ar
    23    18    12   ar
    24     9     1   ar
    25     9     4   ar
@<TRIPOS>MOLECULE
*****
 23 25 0 0 0
SMALL
GASTEIGER

@<TRIPOS>ATOM
      1 C          62.1763   88.4670   10.8521 C.ar    1  UNL1       -0.0144
      2 C          62.4284   87.1017   11.4200 C.ar    1  UNL1        0.0051
      3 S          61.5908   86.1199   10.6557 S.2     1  UNL1       -0.0915
      4 C          60.8209   86.8782    9.6154 C.ar    1  UNL1        0.0288
      5 C          59.8372   86.4353    8.5733 C.ar    1  UNL1        0.0065
      6 C          59.2153   87.4431    7.6526 C.ar    1  UNL1        0.0005
      7 C          59.5772   88.8937    7.7739 C.ar    1  UNL1        0.0000
      8 C          60.5610   89.3366    8.8160 C.ar    1  UNL1        0.0002
      9 C          61.1828   88.3289    9.7368 C.ar    1  UNL1        0.0025
     10 C          63.1555   90.8151   10.3250 C.3     1  UNL1        0.0110
     11 C          62.8070   89.7458   11.3177 C.3     1  UNL1        0.0627
     12 C          63.0891   89.9556   12.7758 C.ar    1  UNL1        0.0629
     13 C          64.4174   90.4991   13.2122 C.ar    1  UNL1        0.0174
     14 C          64.6996   90.7089   14.6704 C.ar    1  UNL1        0.0325
     15 C          63.6534   90.3751   15.6923 C.ar    1  UNL1        0.1592
     16 F          63.9356   90.5848   17.1505 F       1  UNL1       -0.2025
     17 C          62.3252   89.8315   15.2560 C.ar    1  UNL1        0.1280
     18 N          62.0430   89.6218   13.7978 N.ar    1  UNL1       -0.2455
     19 C          63.3555   86.7756   12.5533 C.3     1  UNL1        0.0499
     20 C          63.3779   85.3908   13.1291 C.3     1  UNL1        0.0774
     21 N          63.2938   85.1944   14.6139 N.3     1  UNL1       -0.2700
     22 C          64.0498   86.1057   15.5349 C.3     1  UNL1        0.0897
     23 C          62.4539   84.0869   15.1776 C.3     1  UNL1        0.0897
@<TRIPOS>BOND
     1    11    10    1
     2    11    12    1
     3    12    13   ar
     4    13    14   ar
     5    14    15   ar
     6    15    16    1
     7    15    17   ar
     8    17    18   ar
     9    11     1    1
    10     1     2   ar
    11     2    19    1
    12    19    20    1
    13    20    21    1
    14    21    22    1
    15    21    23    1
    16     2     3   ar
    17     3     4   ar
    18     4     5   ar
    19     5     6   ar
    20     6     7   ar
    21     7     8   ar
    22     8     9   ar
    23    18    12   ar
    24     9     1   ar
    25     9     4   ar
@<TRIPOS>MOLECULE
*****
 23 25 0 0 0
SMALL
GASTEIGER

@<TRIPOS>ATOM
      1 C          63.8270   85.0624   13.3661 C.ar    1  UNL1       -0.0144
      2 C          63.0496   85.7222   12.2659 C.ar    1  UNL1        0.0051
      3 S          62.3265   84.6519   11.5032 S.2     1  UNL1       -0.0915
      4 C          62.6569   83.3308   12.1321 C.ar    1  UNL1        0.0288
      5 C          62.2332   81.9296   11.8050 C.ar    1  UNL1        0.0065
      6 C          62.7369   80.7821   12.6293 C.ar    1  UNL1        0.0005
      7 C          63.6642   81.0358   13.7807 C.ar    1  UNL1        0.0000
      8 C          64.0880   82.4370   14.1077 C.ar    1  UNL1        0.0002
      9 C          63.5843   83.5845   13.2834 C.ar    1  UNL1        0.0025
     10 C          66.0378   85.1908   14.7249 C.3     1  UNL1        0.0110
     11 C          64.6947   85.7584   14.3724 C.3     1  UNL1        0.0627
     12 C          64.2195   87.0220   15.0263 C.ar    1  UNL1        0.0629
     13 C          64.5187   88.3504   14.3971 C.ar    1  UNL1        0.0174
     14 C          64.0435   89.6140   15.0509 C.ar    1  UNL1        0.0325
     15 C          63.2692   89.5492   16.3340 C.ar    1  UNL1        0.1592
     16 F          62.7940   90.8128   16.9878 F       1  UNL1       -0.2025
     17 C          62.9701   88.2208   16.9631 C.ar    1  UNL1        0.1280
     18 N          63.4452   86.9572   16.3093 N.ar    1  UNL1       -0.2455
     19 C          63.0034   87.1937   11.9788 C.3     1  UNL1        0.0499
     20 C          62.0129   87.7344   10.9907 C.3     1  UNL1        0.0774
     21 N          61.6760   89.1960   10.9896 N.3     1  UNL1       -0.2700
     22 C          60.3341   89.6568   11.4764 C.3     1  UNL1        0.0897
     23 C          62.6811   90.1970   10.5018 C.3     1  UNL1        0.0897
@<TRIPOS>BOND
     1    11    10    1
     2    11    12    1
     3    12    13   ar
     4    13    14   ar
     5    14    15   ar
     6    15    16    1
     7    15    17   ar
     8    17    18   ar
     9    11     1    1
    10     1     2   ar
    11     2    19    1
    12    19    20    1
    13    20    21    1
    14    21    22    1
    15    21    23    1
    16     2     3   ar
    17     3     4   ar
    18     4     5   ar
    19     5     6   ar
    20     6     7   ar
    21     7     8   ar
    22     8     9   ar
    23    18    12   ar
    24     9     1   ar
    25     9     4   ar
@<TRIPOS>MOLECULE
*****
 23 25 0 0 0
SMALL
GASTEIGER

@<TRIPOS>ATOM
      1 C          62.9907   84.6152   11.8328 C.ar    1  UNL1       -0.0144
      2 C          63.1133   84.2903   10.3735 C.ar    1  UNL1        0.0051
      3 S          63.0343   82.8001   10.2222 S.2     1  UNL1       -0.0915
      4 C          62.8629   82.2039   11.5880 C.ar    1  UNL1        0.0288
      5 C          62.7278   80.7845   12.0537 C.ar    1  UNL1        0.0065
      6 C          62.5658   80.4869   13.5149 C.ar    1  UNL1        0.0005
      7 C          62.5388   81.6087   14.5103 C.ar    1  UNL1        0.0000
      8 C          62.6739   83.0281   14.0445 C.ar    1  UNL1        0.0002
      9 C          62.8359   83.3257   12.5834 C.ar    1  UNL1        0.0025
     10 C          63.8193   86.2466   13.6772 C.3     1  UNL1        0.0110
     11 C          63.0180   85.9884   12.4357 C.3     1  UNL1        0.0627
     12 C          62.2441   87.1034   11.7972 C.ar    1  UNL1        0.0629
     13 C          62.8727   88.4558   11.6351 C.ar    1  UNL1        0.0174
     14 C          62.0988   89.5709   10.9966 C.ar    1  UNL1        0.0325
     15 C          60.6964   89.3336   10.5201 C.ar    1  UNL1        0.1592
     16 F          59.9226   90.4487    9.8816 F       1  UNL1       -0.2025
     17 C          60.0679   87.9814   10.6822 C.ar    1  UNL1        0.1280
     18 N          60.8417   86.8663   11.3207 N.ar    1  UNL1       -0.2455
     19 C          63.2848   85.2817    9.2610 C.3     1  UNL1        0.0499
     20 C          63.1312   84.8426    7.8349 C.3     1  UNL1        0.0774
     21 N          61.8206   85.0293    7.1297 N.3     1  UNL1       -0.2700
     22 C          60.7671   85.9147    7.7268 C.3     1  UNL1        0.0897
     23 C          61.5634   84.3307    5.8275 C.3     1  UNL1        0.0897
@<TRIPOS>BOND
     1    11    10    1
     2    11    12    1
     3    12    13   ar
     4    13    14   ar
     5    14    15   ar
     6    15    16    1
     7    15    17   ar
     8    17    18   ar
     9    11     1    1
    10     1     2   ar
    11     2    19    1
    12    19    20    1
    13    20    21    1
    14    21    22    1
    15    21    23    1
    16     2     3   ar
    17     3     4   ar
    18     4     5   ar
    19     5     6   ar
    20     6     7   ar
    21     7     8   ar
    22     8     9   ar
    23    18    12   ar
    24     9     1   ar
    25     9     4   ar
