@<TRIPOS>MOLECULE
*****
 39 45 0 0 0
SMALL
GASTEIGER

@<TRIPOS>ATOM
      1 C          63.5642   86.9765   14.8116 C.2     1  UNL1        0.0357
      2 C          63.0207   86.7441   16.1902 C.2     1  UNL1        0.0021
      3 C          62.9227   87.8844   17.1597 C.2     1  UNL1        0.0205
      4 C          63.3682   89.2571   16.7506 C.2     1  UNL1        0.1007
      5 N          63.3910   90.5652   17.4845 N.2     1  UNL1       -0.1483
      6 N          63.9486   91.6060   16.5594 N.2     1  UNL1       -0.1483
      7 C          64.2703   90.9411   15.2538 C.2     1  UNL1        0.1007
      8 C          63.9116   89.4895   15.3720 C.2     1  UNL1        0.0211
      9 C          64.0097   88.3492   14.4025 C.3     1  UNL1        0.0604
     10 C          64.8492   91.6104   14.0427 C.ar    1  UNL1        0.0192
     11 C          64.2309   91.3865   12.6945 C.ar    1  UNL1        0.0028
     12 C          64.8097   92.0558   11.4834 C.ar    1  UNL1        0.0146
     13 C          66.0069   92.9491   11.6203 C.ar    1  UNL1        0.0479
     14 C          66.6252   93.1730   12.9684 C.ar    1  UNL1        0.0146
     15 C          66.0464   92.5037   14.1796 C.ar    1  UNL1        0.0028
     16 N          66.5857   93.6184   10.4091 N.pl3   1  UNL1       -0.3058
     17 C          67.6302   92.9174    9.5920 C.3     1  UNL1        0.1024
     18 C          66.8103   92.6504   10.8193 C.3     1  UNL1        0.0241
     19 C          65.9384   93.8463   11.0636 C.3     1  UNL1        0.0241
     20 C          66.1201   94.9888   10.0150 C.3     1  UNL1        0.1024
     21 C          66.6990   95.6581    8.8039 C.3     1  UNL1        0.1618
     22 O          67.7435   94.9570    7.9868 O.3     1  UNL1       -0.3503
     23 C          68.2091   93.5867    8.3808 C.3     1  UNL1        0.1618
     24 O          64.8827   84.9642   13.8306 O.2     1  UNL1       -0.2705
     25 C          63.6622   85.8362   13.8419 C.2     1  UNL1        0.2424
     26 N          62.5398   85.5678   12.8838 N.am    1  UNL1       -0.2975
     27 H          61.7388   86.1401   12.8913 H       1  UNL1        0.1500
     28 C          62.6379   84.4275   11.9141 C.3     1  UNL1        0.1120
     29 C          62.6131   83.0135   12.4143 C.ar    1  UNL1        0.0768
     30 C          63.0026   81.8884   11.5020 C.ar    1  UNL1        0.0164
     31 C          62.9779   80.4744   12.0022 C.ar    1  UNL1        0.0029
     32 C          62.5636   80.1856   13.4146 C.ar    1  UNL1        0.0207
     33 C          62.1741   81.3108   14.3269 C.ar    1  UNL1        0.0985
     34 N          62.1989   82.7248   13.8268 N.ar    1  UNL1       -0.2465
     35 C          62.7607   84.7011   10.4445 C.3     1  UNL1        0.0238
     36 C          63.6623   83.9813    9.4859 C.3     1  UNL1        0.0020
     37 C          63.4623   84.5779    8.1243 C.3     1  UNL1        0.0001
     38 C          62.4369   85.6665    8.2413 C.3     1  UNL1        0.0001
     39 C          62.0033   85.7427    9.6752 C.3     1  UNL1        0.0020
@<TRIPOS>BOND
     1    24    25    2
     2    25    26   am
     3    28    26    1
     4    28    29    1
     5    29    30   ar
     6    30    31   ar
     7    31    32   ar
     8    32    33   ar
     9    33    34   ar
    10    28    35    1
    11    35    36    1
    12    36    37    1
    13    37    38    1
    14    38    39    1
    15    25     1    1
    16     1     2    2
    17     2     3    1
    18     3     4    2
    19     4     5    1
    20     5     6    2
    21     6     7    1
    22     7    10    1
    23    10    11   ar
    24    11    12   ar
    25    12    13   ar
    26    13    16    1
    27    16    17    1
    28    17    18    1
    29    18    19    1
    30    19    20    1
    31    20    21    1
    32    21    22    1
    33    22    23    1
    34    13    14   ar
    35    14    15   ar
    36     7     8    2
    37     8     9    1
    38    34    29   ar
    39    39    35    1
    40     9     1    1
    41     8     4    1
    42    15    10   ar
    43    20    16    1
    44    23    17    1
    45    26    27    1
@<TRIPOS>MOLECULE
*****
 39 45 0 0 0
SMALL
GASTEIGER

@<TRIPOS>ATOM
      1 C          63.6291   87.1701   14.6802 C.2     1  UNL1        0.0357
      2 C          63.1137   86.9086   16.0643 C.2     1  UNL1        0.0021
      3 C          63.0314   88.0291   17.0581 C.2     1  UNL1        0.0205
      4 C          63.4647   89.4111   16.6678 C.2     1  UNL1        0.1007
      5 N          63.4981   90.7045   17.4269 N.2     1  UNL1       -0.1483
      6 N          64.0342   91.7652   16.5119 N.2     1  UNL1       -0.1483
      7 C          64.3322   91.1275   15.1873 C.2     1  UNL1        0.1007
      8 C          63.9801   89.6726   15.2836 C.2     1  UNL1        0.0211
      9 C          64.0624   88.5521   14.2898 C.3     1  UNL1        0.0604
     10 C          64.8850   91.8227   13.9786 C.ar    1  UNL1        0.0192
     11 C          64.3229   91.5257   12.6199 C.ar    1  UNL1        0.0028
     12 C          64.8758   92.2209   11.4112 C.ar    1  UNL1        0.0146
     13 C          65.9908   93.2130   11.5610 C.ar    1  UNL1        0.0479
     14 C          66.5529   93.5100   12.9196 C.ar    1  UNL1        0.0146
     15 C          66.0000   92.8148   14.1283 C.ar    1  UNL1        0.0028
     16 N          66.5436   93.9082   10.3522 N.pl3   1  UNL1       -0.3058
     17 C          67.5667   93.2231    9.4955 C.3     1  UNL1        0.1024
     18 C          66.7745   92.9305   10.7351 C.3     1  UNL1        0.0241
     19 C          65.9123   94.1228   11.0265 C.3     1  UNL1        0.0241
     20 C          66.0734   95.2884   10.0002 C.3     1  UNL1        0.1024
     21 C          66.6263   95.9835    8.7915 C.3     1  UNL1        0.1618
     22 O          67.6494   95.2985    7.9348 O.3     1  UNL1       -0.3503
     23 C          68.1196   93.9183    8.2867 C.3     1  UNL1        0.1618
     24 O          64.8159   85.0394   13.7846 O.2     1  UNL1       -0.2705
     25 C          63.7114   86.0496   13.6863 C.2     1  UNL1        0.2424
     26 N          62.6892   85.9393   12.5941 N.am    1  UNL1       -0.2975
     27 H          61.9643   86.6023   12.5296 H       1  UNL1        0.1500
     28 C          62.7714   84.8187   11.6002 C.3     1  UNL1        0.1120
     29 C          62.4027   85.0595   10.1663 C.ar    1  UNL1        0.0768
     30 C          63.2797   84.5353    9.0682 C.ar    1  UNL1        0.0164
     31 C          62.9109   84.7761    7.6343 C.ar    1  UNL1        0.0029
     32 C          61.6651   85.5411    7.2986 C.ar    1  UNL1        0.0207
     33 C          60.7880   86.0653    8.3967 C.ar    1  UNL1        0.0985
     34 N          61.1568   85.8246    9.8306 N.ar    1  UNL1       -0.2465
     35 C          63.2224   83.4575   12.0403 C.3     1  UNL1        0.0238
     36 C          64.4898   82.7715   11.6243 C.3     1  UNL1        0.0020
     37 C          64.5359   81.4333   12.3005 C.3     1  UNL1        0.0001
     38 C          63.2970   81.2923   13.1343 C.3     1  UNL1        0.0001
     39 C          62.4852   82.5434   12.9735 C.3     1  UNL1        0.0020
@<TRIPOS>BOND
     1    24    25    2
     2    25    26   am
     3    28    26    1
     4    28    29    1
     5    29    30   ar
     6    30    31   ar
     7    31    32   ar
     8    32    33   ar
     9    33    34   ar
    10    28    35    1
    11    35    36    1
    12    36    37    1
    13    37    38    1
    14    38    39    1
    15    25     1    1
    16     1     2    2
    17     2     3    1
    18     3     4    2
    19     4     5    1
    20     5     6    2
    21     6     7    1
    22     7    10    1
    23    10    11   ar
    24    11    12   ar
    25    12    13   ar
    26    13    16    1
    27    16    17    1
    28    17    18    1
    29    18    19    1
    30    19    20    1
    31    20    21    1
    32    21    22    1
    33    22    23    1
    34    13    14   ar
    35    14    15   ar
    36     7     8    2
    37     8     9    1
    38    34    29   ar
    39    39    35    1
    40     9     1    1
    41     8     4    1
    42    15    10   ar
    43    20    16    1
    44    23    17    1
    45    26    27    1
