@<TRIPOS>MOLECULE
*****
 33 37 0 0 0
SMALL
GASTEIGER

@<TRIPOS>ATOM
      1 N          63.8506   84.9568   13.4908 N.ar    1  UNL1       -0.2411
      2 C          64.3977   86.1663   14.1891 C.ar    1  UNL1        0.2660
      3 O          65.3116   86.0028   15.3673 O.2     1  UNL1       -0.2668
      4 C          64.0308   87.5394   13.7094 C.ar    1  UNL1        0.0735
      5 C          64.5778   88.7489   14.4077 C.ar    1  UNL1        0.0261
      6 C          64.2109   90.1219   13.9279 C.ar    1  UNL1        0.1222
      7 C          63.2969   90.2853   12.7498 C.ar    1  UNL1        0.0214
      8 C          62.7499   89.0758   12.0515 C.ar    1  UNL1        0.0188
      9 C          63.1168   87.7028   12.5313 C.ar    1  UNL1        0.0685
     10 N          62.5697   86.4932   11.8329 N.ar    1  UNL1       -0.2810
     11 C          62.9367   85.1202   12.3127 C.ar    1  UNL1        0.3341
     12 O          62.3896   83.9106   11.6144 O.2     1  UNL1       -0.2462
     13 S          64.7580   91.3315   14.6263 S.O2    1  UNL1        0.0601
     14 O          63.4793   91.4635   15.3992 O.2     1  UNL1       -0.1530
     15 O          66.0366   91.1995   13.8533 O.2     1  UNL1       -0.1530
     16 N          65.3049   92.5411   15.3246 N.3     1  UNL1       -0.1820
     17 H          65.2522   92.3522   16.3255 H       1  UNL1        0.1487
     18 C          66.7051   93.0001   15.0437 C.3     1  UNL1        0.0622
     19 C          66.4802   93.7565   13.7681 C.3     1  UNL1        0.0175
     20 C          68.1834   93.1965   15.2059 C.3     1  UNL1        0.0175
     21 C          67.4161   92.4032   16.2219 C.3     1  UNL1        0.0175
     22 C          64.2175   83.5837   13.9706 C.3     1  UNL1        0.1807
     23 C          60.0070   80.4073   14.2194 C.3     1  UNL1        0.0557
     24 C          61.3470   80.9738   13.8542 C.ar    1  UNL1        0.1008
     25 C          61.9297   82.2586   14.3638 C.ar    1  UNL1        0.0556
     26 C          63.2824   82.4338   13.7398 C.ar    1  UNL1        0.1771
     27 O          63.5358   81.2572   12.8445 O.2     1  UNL1       -0.3561
     28 N          62.3397   80.3549   12.9152 N.ar    1  UNL1       -0.0817
     29 C          61.6558   86.6566   10.6548 C.3     1  UNL1        0.1155
     30 C          62.0079   86.0274    9.3394 C.3     1  UNL1        0.0819
     31 C          61.3270   85.8988    8.0091 C.3     1  UNL1        0.1465
     32 O          62.5059   85.1375    7.4793 O.3     1  UNL1       -0.3535
     33 C          63.1868   85.2661    8.8096 C.3     1  UNL1        0.1465
@<TRIPOS>BOND
     1    23    24    1
     2    24    25   ar
     3    25    26   ar
     4    26    22    1
     5    22     1    1
     6     1     2   ar
     7     2     3    2
     8     2     4   ar
     9     4     5   ar
    10     5     6   ar
    11     6    13    1
    12    13    14    2
    13    13    15    2
    14    13    16    1
    15    16    18    1
    16    18    19    1
    17    18    20    1
    18    20    21    1
    19     6     7   ar
    20     7     8   ar
    21     8     9   ar
    22     9    10   ar
    23    10    29    1
    24    29    30    1
    25    30    31    1
    26    31    32    1
    27    32    33    1
    28    10    11   ar
    29    11    12    2
    30    26    27   ar
    31    27    28   ar
    32    28    24   ar
    33    11     1   ar
    34     9     4   ar
    35    33    30    1
    36    21    18    1
    37    16    17    1
@<TRIPOS>MOLECULE
*****
 33 37 0 0 0
SMALL
GASTEIGER

@<TRIPOS>ATOM
      1 N          63.2620   85.6472   12.9952 N.ar    1  UNL1       -0.2411
      2 C          64.0003   86.5966   13.8915 C.ar    1  UNL1        0.2660
      3 O          64.7631   86.0736   15.0725 O.2     1  UNL1       -0.2668
      4 C          63.9760   88.0692   13.6069 C.ar    1  UNL1        0.0735
      5 C          64.7143   89.0187   14.5031 C.ar    1  UNL1        0.0261
      6 C          64.6899   90.4912   14.2185 C.ar    1  UNL1        0.1222
      7 C          63.9272   91.0142   13.0375 C.ar    1  UNL1        0.0214
      8 C          63.1889   90.0648   12.1412 C.ar    1  UNL1        0.0188
      9 C          63.2133   88.5923   12.4259 C.ar    1  UNL1        0.0685
     10 N          62.4749   87.6427   11.5296 N.ar    1  UNL1       -0.2810
     11 C          62.4993   86.1702   11.8143 C.ar    1  UNL1        0.3341
     12 O          61.7610   85.2207   10.9179 O.2     1  UNL1       -0.2462
     13 S          65.4282   91.4407   15.1148 S.O2    1  UNL1        0.0601
     14 O          66.7313   90.9695   14.5405 O.2     1  UNL1       -0.1530
     15 O          64.1252   91.9119   15.6891 O.2     1  UNL1       -0.1530
     16 N          66.1666   92.3902   16.0110 N.3     1  UNL1       -0.1820
     17 H          66.4482   91.8588   16.8348 H       1  UNL1        0.1487
     18 C          67.3926   93.0945   15.5101 C.3     1  UNL1        0.0622
     19 C          66.7936   93.8984   14.3943 C.3     1  UNL1        0.0175
     20 C          68.8266   93.5196   15.3967 C.3     1  UNL1        0.0175
     21 C          68.4173   92.5352   16.4519 C.3     1  UNL1        0.0175
     22 C          63.2864   84.1746   13.2799 C.3     1  UNL1        0.1807
     23 C          62.9108   79.9846   10.0888 C.3     1  UNL1        0.0557
     24 C          63.3702   81.2741   10.7020 C.ar    1  UNL1        0.1008
     25 C          62.7758   81.9375   11.9089 C.ar    1  UNL1        0.0556
     26 C          63.5428   83.2001   12.1688 C.ar    1  UNL1        0.1771
     27 O          64.6113   83.3170   11.1225 O.2     1  UNL1       -0.3561
     28 N          64.5046   82.1267   10.2160 N.ar    1  UNL1       -0.0817
     29 C          61.7122   88.1658   10.3486 C.3     1  UNL1        0.1155
     30 C          60.6639   89.2215   10.5406 C.3     1  UNL1        0.0819
     31 C          60.1603   90.3765    9.7268 C.3     1  UNL1        0.1465
     32 O          59.1815   90.7143   10.8121 O.3     1  UNL1       -0.3535
     33 C          59.6851   89.5592   11.6258 C.3     1  UNL1        0.1465
@<TRIPOS>BOND
     1    23    24    1
     2    24    25   ar
     3    25    26   ar
     4    26    22    1
     5    22     1    1
     6     1     2   ar
     7     2     3    2
     8     2     4   ar
     9     4     5   ar
    10     5     6   ar
    11     6    13    1
    12    13    14    2
    13    13    15    2
    14    13    16    1
    15    16    18    1
    16    18    19    1
    17    18    20    1
    18    20    21    1
    19     6     7   ar
    20     7     8   ar
    21     8     9   ar
    22     9    10   ar
    23    10    29    1
    24    29    30    1
    25    30    31    1
    26    31    32    1
    27    32    33    1
    28    10    11   ar
    29    11    12    2
    30    26    27   ar
    31    27    28   ar
    32    28    24   ar
    33    11     1   ar
    34     9     4   ar
    35    33    30    1
    36    21    18    1
    37    16    17    1
@<TRIPOS>MOLECULE
*****
 33 37 0 0 0
SMALL
GASTEIGER

@<TRIPOS>ATOM
      1 N          63.4201   89.7337   12.9184 N.ar    1  UNL1       -0.2411
      2 C          63.6377   88.3378   13.4222 C.ar    1  UNL1        0.2660
      3 O          64.2644   88.1149   14.7667 O.2     1  UNL1       -0.2668
      4 C          63.2287   87.1647   12.5816 C.ar    1  UNL1        0.0735
      5 C          63.4464   85.7687   13.0854 C.ar    1  UNL1        0.0261
      6 C          63.0373   84.5957   12.2448 C.ar    1  UNL1        0.1222
      7 C          62.4106   84.8186   10.9004 C.ar    1  UNL1        0.0214
      8 C          62.1930   86.2146   10.3965 C.ar    1  UNL1        0.0188
      9 C          62.6020   87.3876   11.2371 C.ar    1  UNL1        0.0685
     10 N          62.3843   88.7836   10.7333 N.ar    1  UNL1       -0.2810
     11 C          62.7934   89.9567   11.5739 C.ar    1  UNL1        0.3341
     12 O          62.5757   91.3527   11.0701 O.2     1  UNL1       -0.2462
     13 S          63.2550   83.1997   12.7487 S.O2    1  UNL1        0.0601
     14 O          62.5054   82.6568   11.5683 O.2     1  UNL1       -0.1530
     15 O          64.0046   83.7425   13.9290 O.2     1  UNL1       -0.1530
     16 N          63.4726   81.8037   13.2524 N.3     1  UNL1       -0.1820
     17 H          63.9942   81.8836   14.1254 H       1  UNL1        0.1487
     18 C          62.2967   80.9148   13.5304 C.3     1  UNL1        0.0622
     19 C          62.6746   79.7184   12.7083 C.3     1  UNL1        0.0175
     20 C          60.9897   80.4414   14.0939 C.3     1  UNL1        0.0175
     21 C          61.5107   81.8025   14.4491 C.3     1  UNL1        0.0175
     22 C          63.8291   90.9069   13.7590 C.3     1  UNL1        0.1807
     23 C          68.7765   92.4205   14.8139 C.3     1  UNL1        0.0557
     24 C          67.4781   92.1848   14.1007 C.ar    1  UNL1        0.1008
     25 C          66.2682   91.5073   14.6727 C.ar    1  UNL1        0.0556
     26 C          65.2040   91.4891   13.6158 C.ar    1  UNL1        0.1771
     27 O          65.7562   92.1553   12.3905 O.2     1  UNL1       -0.3561
     28 N          67.1616   92.5853   12.6901 N.ar    1  UNL1       -0.0817
     29 C          61.7576   89.0066    9.3889 C.3     1  UNL1        0.1155
     30 C          60.4919   88.2894    9.0232 C.3     1  UNL1        0.0819
     31 C          59.2264   87.9355    9.7466 C.3     1  UNL1        0.1465
     32 O          58.7019   87.2752    8.5060 O.3     1  UNL1       -0.3535
     33 C          59.9674   87.6291    7.7826 C.3     1  UNL1        0.1465
@<TRIPOS>BOND
     1    23    24    1
     2    24    25   ar
     3    25    26   ar
     4    26    22    1
     5    22     1    1
     6     1     2   ar
     7     2     3    2
     8     2     4   ar
     9     4     5   ar
    10     5     6   ar
    11     6    13    1
    12    13    14    2
    13    13    15    2
    14    13    16    1
    15    16    18    1
    16    18    19    1
    17    18    20    1
    18    20    21    1
    19     6     7   ar
    20     7     8   ar
    21     8     9   ar
    22     9    10   ar
    23    10    29    1
    24    29    30    1
    25    30    31    1
    26    31    32    1
    27    32    33    1
    28    10    11   ar
    29    11    12    2
    30    26    27   ar
    31    27    28   ar
    32    28    24   ar
    33    11     1   ar
    34     9     4   ar
    35    33    30    1
    36    21    18    1
    37    16    17    1
@<TRIPOS>MOLECULE
*****
 33 37 0 0 0
SMALL
GASTEIGER

@<TRIPOS>ATOM
      1 N          62.6520   85.9550   12.4379 N.ar    1  UNL1       -0.2411
      2 C          63.4611   86.9681   13.1922 C.ar    1  UNL1        0.2660
      3 O          64.2626   86.5478   14.3884 O.2     1  UNL1       -0.2668
      4 C          63.4688   88.4015   12.7502 C.ar    1  UNL1        0.0735
      5 C          64.2779   89.4146   13.5045 C.ar    1  UNL1        0.0261
      6 C          64.2855   90.8480   13.0625 C.ar    1  UNL1        0.1222
      7 C          63.4840   91.2683   11.8663 C.ar    1  UNL1        0.0214
      8 C          62.6749   90.2552   11.1120 C.ar    1  UNL1        0.0188
      9 C          62.6673   88.8218   11.5540 C.ar    1  UNL1        0.0685
     10 N          61.8582   87.8086   10.7997 N.ar    1  UNL1       -0.2810
     11 C          61.8506   86.3753   11.2417 C.ar    1  UNL1        0.3341
     12 O          61.0414   85.3621   10.4874 O.2     1  UNL1       -0.2462
     13 S          65.0946   91.8612   13.8168 S.O2    1  UNL1        0.0601
     14 O          65.1202   92.7435   12.6041 O.2     1  UNL1       -0.1530
     15 O          65.0691   90.9788   15.0295 O.2     1  UNL1       -0.1530
     16 N          65.9037   92.8743   14.5710 N.3     1  UNL1       -0.1820
     17 H          65.4460   93.0041   15.4732 H       1  UNL1        0.1487
     18 C          67.3539   92.6157   14.8543 C.3     1  UNL1        0.0622
     19 C          67.4391   93.1259   16.2623 C.3     1  UNL1        0.0175
     20 C          68.7744   92.1800   14.6488 C.3     1  UNL1        0.0175
     21 C          67.7722   92.0158   13.5448 C.3     1  UNL1        0.0175
     22 C          62.6444   84.5216   12.8799 C.3     1  UNL1        0.1807
     23 C          63.0920   79.9980   10.1934 C.3     1  UNL1        0.0557
     24 C          63.3654   81.3722   10.7289 C.ar    1  UNL1        0.1008
     25 C          62.5125   82.1226   11.7084 C.ar    1  UNL1        0.0556
     26 C          63.1597   83.4515   11.9637 C.ar    1  UNL1        0.1771
     27 O          64.4126   83.5224   11.1420 O.2     1  UNL1       -0.3561
     28 N          64.5397   82.2374   10.3788 N.ar    1  UNL1       -0.0817
     29 C          61.0567   88.2289    9.6035 C.3     1  UNL1        0.1155
     30 C          60.5252   87.1947    8.6558 C.3     1  UNL1        0.0819
     31 C          59.1604   86.7933    8.1803 C.3     1  UNL1        0.1465
     32 O          59.7737   85.7321    7.3156 O.3     1  UNL1       -0.3535
     33 C          61.1385   86.1335    7.7910 C.3     1  UNL1        0.1465
@<TRIPOS>BOND
     1    23    24    1
     2    24    25   ar
     3    25    26   ar
     4    26    22    1
     5    22     1    1
     6     1     2   ar
     7     2     3    2
     8     2     4   ar
     9     4     5   ar
    10     5     6   ar
    11     6    13    1
    12    13    14    2
    13    13    15    2
    14    13    16    1
    15    16    18    1
    16    18    19    1
    17    18    20    1
    18    20    21    1
    19     6     7   ar
    20     7     8   ar
    21     8     9   ar
    22     9    10   ar
    23    10    29    1
    24    29    30    1
    25    30    31    1
    26    31    32    1
    27    32    33    1
    28    10    11   ar
    29    11    12    2
    30    26    27   ar
    31    27    28   ar
    32    28    24   ar
    33    11     1   ar
    34     9     4   ar
    35    33    30    1
    36    21    18    1
    37    16    17    1
@<TRIPOS>MOLECULE
*****
 33 37 0 0 0
SMALL
GASTEIGER

@<TRIPOS>ATOM
      1 N          62.0038   87.1562   10.7739 N.ar    1  UNL1       -0.2411
      2 C          62.4654   88.5049   11.2406 C.ar    1  UNL1        0.2660
      3 O          62.1486   89.7275   10.4314 O.2     1  UNL1       -0.2668
      4 C          63.2439   88.6311   12.5166 C.ar    1  UNL1        0.0735
      5 C          63.7055   89.9798   12.9834 C.ar    1  UNL1        0.0261
      6 C          64.4839   90.1059   14.2593 C.ar    1  UNL1        0.1222
      7 C          64.8007   88.8833   15.0686 C.ar    1  UNL1        0.0214
      8 C          64.3391   87.5346   14.6018 C.ar    1  UNL1        0.0188
      9 C          63.5607   87.4085   13.3259 C.ar    1  UNL1        0.0685
     10 N          63.0991   86.0597   12.8591 N.ar    1  UNL1       -0.2810
     11 C          62.3207   85.9336   11.5831 C.ar    1  UNL1        0.3341
     12 O          61.8590   84.5849   11.1163 O.2     1  UNL1       -0.2462
     13 S          64.9455   91.4547   14.7261 S.O2    1  UNL1        0.0601
     14 O          64.0131   91.3682   15.8979 O.2     1  UNL1       -0.1530
     15 O          65.8778   91.5412   13.5543 O.2     1  UNL1       -0.1530
     16 N          65.4071   92.8033   15.1929 N.3     1  UNL1       -0.1820
     17 H          65.1422   92.8816   16.1748 H       1  UNL1        0.1487
     18 C          66.8587   93.1710   15.1054 C.3     1  UNL1        0.0622
     19 C          66.8171   94.1212   13.9455 C.3     1  UNL1        0.0175
     20 C          68.3247   93.2087   15.4206 C.3     1  UNL1        0.0175
     21 C          67.4043   92.3484   16.2348 C.3     1  UNL1        0.0175
     22 C          61.2254   87.0301    9.4979 C.3     1  UNL1        0.1807
     23 C          61.3221   83.9310    5.2239 C.3     1  UNL1        0.0557
     24 C          61.7445   84.6788    6.4537 C.ar    1  UNL1        0.1008
     25 C          60.8691   85.5613    7.2932 C.ar    1  UNL1        0.0556
     26 C          61.7001   86.1033    8.4182 C.ar    1  UNL1        0.1771
     27 O          63.0891   85.5556    8.2741 O.2     1  UNL1       -0.3561
     28 N          63.1166   84.6752    7.0600 N.ar    1  UNL1       -0.0817
     29 C          63.4159   84.8371   13.6683 C.3     1  UNL1        0.1155
     30 C          63.9774   83.6185   12.9976 C.3     1  UNL1        0.0819
     31 C          64.7682   83.3647   11.7485 C.3     1  UNL1        0.1465
     32 O          64.7714   81.8951   12.0491 O.3     1  UNL1       -0.3535
     33 C          63.9806   82.1489   13.2982 C.3     1  UNL1        0.1465
@<TRIPOS>BOND
     1    23    24    1
     2    24    25   ar
     3    25    26   ar
     4    26    22    1
     5    22     1    1
     6     1     2   ar
     7     2     3    2
     8     2     4   ar
     9     4     5   ar
    10     5     6   ar
    11     6    13    1
    12    13    14    2
    13    13    15    2
    14    13    16    1
    15    16    18    1
    16    18    19    1
    17    18    20    1
    18    20    21    1
    19     6     7   ar
    20     7     8   ar
    21     8     9   ar
    22     9    10   ar
    23    10    29    1
    24    29    30    1
    25    30    31    1
    26    31    32    1
    27    32    33    1
    28    10    11   ar
    29    11    12    2
    30    26    27   ar
    31    27    28   ar
    32    28    24   ar
    33    11     1   ar
    34     9     4   ar
    35    33    30    1
    36    21    18    1
    37    16    17    1
@<TRIPOS>MOLECULE
*****
 33 37 0 0 0
SMALL
GASTEIGER

@<TRIPOS>ATOM
      1 N          62.3255   87.7041   11.5827 N.ar    1  UNL1       -0.2411
      2 C          62.7587   89.1120   11.2995 C.ar    1  UNL1        0.2660
      3 O          62.2351   89.8290   10.0905 O.2     1  UNL1       -0.2668
      4 C          63.7155   89.8029   12.2254 C.ar    1  UNL1        0.0735
      5 C          64.1487   91.2107   11.9423 C.ar    1  UNL1        0.0261
      6 C          65.1055   91.9015   12.8681 C.ar    1  UNL1        0.1222
      7 C          65.6292   91.1845   14.0771 C.ar    1  UNL1        0.0214
      8 C          65.1959   89.7766   14.3603 C.ar    1  UNL1        0.0188
      9 C          64.2391   89.0858   13.4344 C.ar    1  UNL1        0.0685
     10 N          63.8059   87.6779   13.7175 N.ar    1  UNL1       -0.2810
     11 C          62.8491   86.9871   12.7917 C.ar    1  UNL1        0.3341
     12 O          62.4158   85.5791   13.0748 O.2     1  UNL1       -0.2462
     13 S          65.5388   93.3095   12.5850 S.O2    1  UNL1        0.0601
     14 O          64.9247   93.2238   11.2192 O.2     1  UNL1       -0.1530
     15 O          66.1529   93.3952   13.9508 O.2     1  UNL1       -0.1530
     16 N          65.9720   94.7173   12.3018 N.3     1  UNL1       -0.1820
     17 H          66.7209   94.9329   12.9599 H       1  UNL1        0.1487
     18 C          66.4743   95.0875   10.9377 C.3     1  UNL1        0.0622
     19 C          65.7247   96.3690   10.7232 C.3     1  UNL1        0.0175
     20 C          67.2368   95.0127    9.6482 C.3     1  UNL1        0.0175
     21 C          67.3982   93.9346   10.6787 C.3     1  UNL1        0.0175
     22 C          61.3686   87.0132   10.6568 C.3     1  UNL1        0.1807
     23 C          61.9524   84.5044    6.0476 C.3     1  UNL1        0.0557
     24 C          62.1566   84.9496    7.4654 C.ar    1  UNL1        0.1008
     25 C          61.3340   85.9687    8.1966 C.ar    1  UNL1        0.0556
     26 C          61.8883   86.1028    9.5840 C.ar    1  UNL1        0.1771
     27 O          63.0535   85.1666    9.7102 O.2     1  UNL1       -0.3561
     28 N          63.2194   84.4539    8.4008 N.ar    1  UNL1       -0.0817
     29 C          64.3295   86.9608   14.9265 C.3     1  UNL1        0.1155
     30 C          63.4242   86.6986   16.0936 C.3     1  UNL1        0.0819
     31 C          62.6914   85.4999   16.6191 C.3     1  UNL1        0.1465
     32 O          62.1441   86.3278   17.7439 O.3     1  UNL1       -0.3535
     33 C          62.8769   87.5264   17.2184 C.3     1  UNL1        0.1465
@<TRIPOS>BOND
     1    23    24    1
     2    24    25   ar
     3    25    26   ar
     4    26    22    1
     5    22     1    1
     6     1     2   ar
     7     2     3    2
     8     2     4   ar
     9     4     5   ar
    10     5     6   ar
    11     6    13    1
    12    13    14    2
    13    13    15    2
    14    13    16    1
    15    16    18    1
    16    18    19    1
    17    18    20    1
    18    20    21    1
    19     6     7   ar
    20     7     8   ar
    21     8     9   ar
    22     9    10   ar
    23    10    29    1
    24    29    30    1
    25    30    31    1
    26    31    32    1
    27    32    33    1
    28    10    11   ar
    29    11    12    2
    30    26    27   ar
    31    27    28   ar
    32    28    24   ar
    33    11     1   ar
    34     9     4   ar
    35    33    30    1
    36    21    18    1
    37    16    17    1
@<TRIPOS>MOLECULE
*****
 33 37 0 0 0
SMALL
GASTEIGER

@<TRIPOS>ATOM
      1 N          63.0368   89.1344   12.9259 N.ar    1  UNL1       -0.2411
      2 C          62.1716   89.6187   11.8003 C.ar    1  UNL1        0.2660
      3 O          61.8200   91.0732   11.6968 O.2     1  UNL1       -0.2668
      4 C          61.6579   88.6483   10.7782 C.ar    1  UNL1        0.0735
      5 C          60.7927   89.1326    9.6526 C.ar    1  UNL1        0.0261
      6 C          60.2791   88.1623    8.6305 C.ar    1  UNL1        0.1222
      7 C          60.6307   86.7078    8.7340 C.ar    1  UNL1        0.0214
      8 C          61.4959   86.2235    9.8596 C.ar    1  UNL1        0.0188
      9 C          62.0095   87.1938   10.8816 C.ar    1  UNL1        0.0685
     10 N          62.8747   86.7096   12.0073 N.ar    1  UNL1       -0.2810
     11 C          63.3883   87.6799   13.0294 C.ar    1  UNL1        0.3341
     12 O          64.2536   87.1956   14.1550 O.2     1  UNL1       -0.2462
     13 S          59.4139   88.6465    7.5049 S.O2    1  UNL1        0.0601
     14 O          59.4044   90.0217    8.1039 O.2     1  UNL1       -0.1530
     15 O          59.4234   87.2714    6.9059 O.2     1  UNL1       -0.1530
     16 N          58.5487   89.1308    6.3794 N.3     1  UNL1       -0.1820
     17 H          57.6167   89.2779    6.7667 H       1  UNL1        0.1487
     18 C          58.9127   90.3836    5.6390 C.3     1  UNL1        0.0622
     19 C          60.4043   90.2327    5.5895 C.3     1  UNL1        0.0175
     20 C          58.7588   91.6887    4.9159 C.3     1  UNL1        0.0175
     21 C          57.5476   90.9694    5.4315 C.3     1  UNL1        0.0175
     22 C          63.5504   90.1047   13.9480 C.3     1  UNL1        0.1807
     23 C          68.2965   92.3726   14.4079 C.3     1  UNL1        0.0557
     24 C          66.9576   91.9622   13.8705 C.ar    1  UNL1        0.1008
     25 C          65.9745   91.0562   14.5507 C.ar    1  UNL1        0.0556
     26 C          64.7760   90.9197   13.6591 C.ar    1  UNL1        0.1771
     27 O          65.0184   91.7415   12.4278 O.2     1  UNL1       -0.3561
     28 N          66.3667   92.3857   12.5584 N.ar    1  UNL1       -0.0817
     29 C          63.2263   85.2550   12.1108 C.3     1  UNL1        0.1155
     30 C          63.2686   84.5873   13.4533 C.3     1  UNL1        0.0819
     31 C          64.3233   83.8845   14.2557 C.3     1  UNL1        0.1465
     32 O          63.3284   83.6431   15.3520 O.3     1  UNL1       -0.3535
     33 C          62.2737   84.3459   14.5497 C.3     1  UNL1        0.1465
@<TRIPOS>BOND
     1    23    24    1
     2    24    25   ar
     3    25    26   ar
     4    26    22    1
     5    22     1    1
     6     1     2   ar
     7     2     3    2
     8     2     4   ar
     9     4     5   ar
    10     5     6   ar
    11     6    13    1
    12    13    14    2
    13    13    15    2
    14    13    16    1
    15    16    18    1
    16    18    19    1
    17    18    20    1
    18    20    21    1
    19     6     7   ar
    20     7     8   ar
    21     8     9   ar
    22     9    10   ar
    23    10    29    1
    24    29    30    1
    25    30    31    1
    26    31    32    1
    27    32    33    1
    28    10    11   ar
    29    11    12    2
    30    26    27   ar
    31    27    28   ar
    32    28    24   ar
    33    11     1   ar
    34     9     4   ar
    35    33    30    1
    36    21    18    1
    37    16    17    1
@<TRIPOS>MOLECULE
*****
 33 37 0 0 0
SMALL
GASTEIGER

@<TRIPOS>ATOM
      1 N          63.1777   88.5896   12.2929 N.ar    1  UNL1       -0.2411
      2 C          62.4085   89.2621   11.1947 C.ar    1  UNL1        0.2660
      3 O          62.4618   90.7537   11.0464 O.2     1  UNL1       -0.2668
      4 C          61.5858   88.4428   10.2449 C.ar    1  UNL1        0.0735
      5 C          60.8165   89.1152    9.1467 C.ar    1  UNL1        0.0261
      6 C          59.9940   88.2960    8.1969 C.ar    1  UNL1        0.1222
      7 C          59.9406   86.8043    8.3453 C.ar    1  UNL1        0.0214
      8 C          60.7099   86.1319    9.4434 C.ar    1  UNL1        0.0188
      9 C          61.5325   86.9511   10.3932 C.ar    1  UNL1        0.0685
     10 N          62.3018   86.2787   11.4915 N.ar    1  UNL1       -0.2810
     11 C          63.1244   87.0979   12.4412 C.ar    1  UNL1        0.3341
     12 O          63.8938   86.4255   13.5395 O.2     1  UNL1       -0.2462
     13 S          59.2246   88.9684    7.0987 S.O2    1  UNL1        0.0601
     14 O          59.3752   90.2858    7.7999 O.2     1  UNL1       -0.1530
     15 O          59.0740   87.6510    6.3975 O.2     1  UNL1       -0.1530
     16 N          58.4553   89.6409    6.0006 N.3     1  UNL1       -0.1820
     17 H          57.5521   89.9060    6.3934 H       1  UNL1        0.1487
     18 C          59.0132   90.8634    5.3339 C.3     1  UNL1        0.0622
     19 C          60.4769   90.5386    5.3773 C.3     1  UNL1        0.0175
     20 C          59.0627   92.1986    4.6521 C.3     1  UNL1        0.0175
     21 C          57.7431   91.6126    5.0590 C.3     1  UNL1        0.0175
     22 C          64.0004   89.4089   13.2427 C.3     1  UNL1        0.1807
     23 C          62.9468   87.8656   18.1813 C.3     1  UNL1        0.0557
     24 C          63.1728   88.7249   16.9726 C.ar    1  UNL1        0.1008
     25 C          63.5266   88.2383   15.5986 C.ar    1  UNL1        0.0556
     26 C          63.6570   89.4342   14.7027 C.ar    1  UNL1        0.1771
     27 O          63.3838   90.6600   15.5230 O.2     1  UNL1       -0.3561
     28 N          63.0845   90.2216   16.9259 N.ar    1  UNL1       -0.0817
     29 C          62.2485   84.7870   11.6398 C.3     1  UNL1        0.1155
     30 C          63.3520   83.9379   11.0818 C.3     1  UNL1        0.0819
     31 C          64.4281   83.0750   11.6713 C.3     1  UNL1        0.1465
     32 O          64.9126   82.7371   10.2925 O.3     1  UNL1       -0.3535
     33 C          63.8365   83.6000    9.7029 C.3     1  UNL1        0.1465
@<TRIPOS>BOND
     1    23    24    1
     2    24    25   ar
     3    25    26   ar
     4    26    22    1
     5    22     1    1
     6     1     2   ar
     7     2     3    2
     8     2     4   ar
     9     4     5   ar
    10     5     6   ar
    11     6    13    1
    12    13    14    2
    13    13    15    2
    14    13    16    1
    15    16    18    1
    16    18    19    1
    17    18    20    1
    18    20    21    1
    19     6     7   ar
    20     7     8   ar
    21     8     9   ar
    22     9    10   ar
    23    10    29    1
    24    29    30    1
    25    30    31    1
    26    31    32    1
    27    32    33    1
    28    10    11   ar
    29    11    12    2
    30    26    27   ar
    31    27    28   ar
    32    28    24   ar
    33    11     1   ar
    34     9     4   ar
    35    33    30    1
    36    21    18    1
    37    16    17    1
@<TRIPOS>MOLECULE
*****
 33 37 0 0 0
SMALL
GASTEIGER

@<TRIPOS>ATOM
      1 N          59.9870   88.0849    8.7162 N.ar    1  UNL1       -0.2411
      2 C          60.5576   86.7213    8.9711 C.ar    1  UNL1        0.2660
      3 O          60.2101   85.5807    8.0611 O.2     1  UNL1       -0.2668
      4 C          61.4759   86.4983   10.1361 C.ar    1  UNL1        0.0735
      5 C          62.0466   85.1348   10.3909 C.ar    1  UNL1        0.0261
      6 C          62.9648   84.9118   11.5559 C.ar    1  UNL1        0.1222
      7 C          63.3124   86.0525   12.4659 C.ar    1  UNL1        0.0214
      8 C          62.7417   87.4160   12.2110 C.ar    1  UNL1        0.0188
      9 C          61.8235   87.6389   11.0461 C.ar    1  UNL1        0.0685
     10 N          61.2528   89.0026   10.7912 N.ar    1  UNL1       -0.2810
     11 C          60.3345   89.2255    9.6263 C.ar    1  UNL1        0.3341
     12 O          59.7638   90.5891    9.3714 O.2     1  UNL1       -0.2462
     13 S          63.5356   83.5482   11.8108 S.O2    1  UNL1        0.0601
     14 O          64.0460   83.4984   10.4012 O.2     1  UNL1       -0.1530
     15 O          63.0252   83.5981   13.2204 O.2     1  UNL1       -0.1530
     16 N          64.1063   82.1847   12.0657 N.3     1  UNL1       -0.1820
     17 H          64.6814   82.2584   12.9048 H       1  UNL1        0.1487
     18 C          63.1904   81.0144   12.2698 C.3     1  UNL1        0.0622
     19 C          62.8280   80.7157   10.8452 C.3     1  UNL1        0.0175
     20 C          62.4003   79.9479   12.9687 C.3     1  UNL1        0.0175
     21 C          63.2347   80.9068   13.7653 C.3     1  UNL1        0.0175
     22 C          59.0687   88.3079    7.5513 C.3     1  UNL1        0.1807
     23 C          58.3966   92.3702    4.2458 C.3     1  UNL1        0.0557
     24 C          59.0351   91.2854    5.0617 C.ar    1  UNL1        0.1008
     25 C          58.3205   90.3274    5.9681 C.ar    1  UNL1        0.0556
     26 C          59.3440   89.4182    6.5811 C.ar    1  UNL1        0.1771
     27 O          60.6911   89.8142    6.0534 O.2     1  UNL1       -0.3561
     28 N          60.5002   90.9682    5.1144 N.ar    1  UNL1       -0.0817
     29 C          61.6003   90.1432   11.7013 C.3     1  UNL1        0.1155
     30 C          62.8865   90.8909   11.5091 C.3     1  UNL1        0.0819
     31 C          64.0328   91.2752   12.3969 C.3     1  UNL1        0.1465
     32 O          64.7053   91.9483   11.2372 O.3     1  UNL1       -0.3535
     33 C          63.5589   91.5640   10.3494 C.3     1  UNL1        0.1465
@<TRIPOS>BOND
     1    23    24    1
     2    24    25   ar
     3    25    26   ar
     4    26    22    1
     5    22     1    1
     6     1     2   ar
     7     2     3    2
     8     2     4   ar
     9     4     5   ar
    10     5     6   ar
    11     6    13    1
    12    13    14    2
    13    13    15    2
    14    13    16    1
    15    16    18    1
    16    18    19    1
    17    18    20    1
    18    20    21    1
    19     6     7   ar
    20     7     8   ar
    21     8     9   ar
    22     9    10   ar
    23    10    29    1
    24    29    30    1
    25    30    31    1
    26    31    32    1
    27    32    33    1
    28    10    11   ar
    29    11    12    2
    30    26    27   ar
    31    27    28   ar
    32    28    24   ar
    33    11     1   ar
    34     9     4   ar
    35    33    30    1
    36    21    18    1
    37    16    17    1
