@<TRIPOS>MOLECULE
*****
 38 42 0 0 0
SMALL
GASTEIGER

@<TRIPOS>ATOM
      1 C          63.5773   88.1910   15.4916 C.3     1  UNL1        0.2246
      2 C          63.7054   86.7246   15.2031 C.2     1  UNL1        0.0436
      3 C          63.4440   85.7213   16.2871 C.2     1  UNL1        0.0288
      4 C          63.0545   86.1843   17.6596 C.2     1  UNL1        0.0896
      5 N          62.9263   87.6507   17.9482 N.am    1  UNL1       -0.1770
      6 C          63.1877   88.6540   16.8642 C.2     1  UNL1        0.2627
      7 O          63.0595   90.1204   17.1527 O.2     1  UNL1       -0.2719
      8 C          62.4952   90.2050   10.0274 C.3     1  UNL1        0.0312
      9 C          63.4811   90.9062   10.9142 C.2     1  UNL1        0.0136
     10 C          64.2005   92.1256   10.4188 C.2     1  UNL1        0.0107
     11 C          65.1864   92.8267   11.3055 C.2     1  UNL1        0.0509
     12 C          65.4531   92.3084   12.6877 C.2     1  UNL1        0.0613
     13 C          64.7338   91.0889   13.1830 C.2     1  UNL1        0.2246
     14 N          64.7899   90.3513   14.4879 N.2     1  UNL1       -0.0378
     15 C          63.8386   89.1944   14.4077 C.2     1  UNL1        0.3605
     16 N          63.1945   89.2169   13.0532 N.2     1  UNL1       -0.0547
     17 C          63.7478   90.3878   12.2963 C.3     1  UNL1        0.2976
     18 N          65.9058   94.0463   10.8101 N.pl3   1  UNL1       -0.3060
     19 C          66.0287   95.3531   11.5361 C.3     1  UNL1        0.0923
     20 C          66.8274   96.2875   10.6765 C.3     1  UNL1        0.0386
     21 C          67.1980   95.5583    9.4192 C.3     1  UNL1        0.0725
     22 N          67.9978   96.1161    8.2794 N.3     1  UNL1       -0.3208
     23 C          66.6284   94.1731    9.5018 C.3     1  UNL1        0.1062
     24 H          68.1002   95.4047    7.5556 H       1  UNL1        0.1189
     25 H          68.9198   96.3946    8.6152 H       1  UNL1        0.1189
     26 N          64.0950   86.2615   13.8306 N.pl3   1  UNL1       -0.3329
     27 H          64.3126   86.9203   13.1321 H       1  UNL1        0.1466
     28 C          64.1530   84.7947   13.5222 C.3     1  UNL1        0.1211
     29 C          63.0973   84.1671   12.6610 C.3     1  UNL1        0.1522
     30 O          62.4156   82.9079   13.1080 O.3     1  UNL1       -0.3783
     31 H          62.7719   82.6351   13.9680 H       1  UNL1        0.2109
     32 C          62.7234   84.7986   11.3529 C.ar    1  UNL1        0.0067
     33 C          63.4481   84.4104   10.0983 C.ar    1  UNL1       -0.0018
     34 C          63.0741   85.0420    8.7901 C.ar    1  UNL1        0.0006
     35 C          61.9754   86.0618    8.7365 C.ar    1  UNL1        0.0114
     36 C          61.2507   86.4500    9.9911 C.ar    1  UNL1        0.0574
     37 CL         60.1521   87.4698    9.9375 Cl      1  UNL1       -0.0823
     38 C          61.6247   85.8184   11.2993 C.ar    1  UNL1        0.0095
@<TRIPOS>BOND
     1     8     9    1
     2     9    10    2
     3    10    11    1
     4    11    18    1
     5    18    19    1
     6    19    20    1
     7    20    21    1
     8    21    22    1
     9    21    23    1
    10    11    12    2
    11    12    13    1
    12    13    14    2
    13    14    15    1
    14    15     1    1
    15     1     2    1
    16     2    26    1
    17    26    28    1
    18    28    29    1
    19    29    30    1
    20    29    32    1
    21    32    33   ar
    22    33    34   ar
    23    34    35   ar
    24    35    36   ar
    25    36    37    1
    26    36    38   ar
    27     2     3    2
    28     3     4    1
    29     4     5    2
    30     5     6    1
    31     6     7    2
    32    15    16    2
    33    16    17    1
    34    17     9    1
    35    23    18    1
    36    17    13    1
    37     6     1    1
    38    38    32   ar
    39    22    24    1
    40    22    25    1
    41    26    27    1
    42    30    31    1
@<TRIPOS>MOLECULE
*****
 38 42 0 0 0
SMALL
GASTEIGER

@<TRIPOS>ATOM
      1 C          61.2291   87.8610    9.6636 C.3     1  UNL1        0.2246
      2 C          61.5311   86.4864    9.1448 C.2     1  UNL1        0.0436
      3 C          60.6287   85.8539    8.1271 C.2     1  UNL1        0.0288
      4 C          59.4244   86.5959    7.6282 C.2     1  UNL1        0.0896
      5 N          59.1224   87.9706    8.1469 N.am    1  UNL1       -0.1770
      6 C          60.0248   88.6031    9.1646 C.2     1  UNL1        0.2627
      7 O          59.7228   89.9778    9.6834 O.2     1  UNL1       -0.2719
      8 C          64.0174   87.5977   14.8829 C.3     1  UNL1        0.0312
      9 C          64.1593   88.8062   14.0058 C.2     1  UNL1        0.0136
     10 C          65.0117   89.9583   14.4486 C.2     1  UNL1        0.0107
     11 C          65.1537   91.1668   13.5716 C.2     1  UNL1        0.0509
     12 C          64.4433   91.2233   12.2516 C.2     1  UNL1        0.0613
     13 C          63.5909   90.0713   11.8088 C.2     1  UNL1        0.2246
     14 N          62.7766   89.8432   10.5699 N.2     1  UNL1       -0.0378
     15 C          62.1314   88.4936   10.6813 C.2     1  UNL1        0.3605
     16 N          62.5469   87.8876   11.9890 N.2     1  UNL1       -0.0547
     17 C          63.4489   88.8627   12.6859 C.3     1  UNL1        0.2976
     18 N          66.0062   92.3190   14.0144 N.pl3   1  UNL1       -0.3060
     19 C          66.1045   93.6541   13.3379 C.3     1  UNL1        0.0923
     20 C          67.0690   94.4985   14.1168 C.3     1  UNL1        0.0386
     21 C          67.5667   93.6852   15.2748 C.3     1  UNL1        0.0725
     22 N          68.5488   94.1392   16.3137 N.3     1  UNL1       -0.3208
     23 C          66.9098   92.3382   15.2115 C.3     1  UNL1        0.1062
     24 H          68.7083   93.3860   16.9829 H       1  UNL1        0.1189
     25 H          68.1759   94.9538   16.8012 H       1  UNL1        0.1189
     26 N          62.7354   85.7442    9.6437 N.pl3   1  UNL1       -0.3329
     27 H          63.4904   86.2388   10.0368 H       1  UNL1        0.1466
     28 C          62.7894   84.2486    9.5436 C.3     1  UNL1        0.1211
     29 C          63.6355   83.4629   10.5010 C.3     1  UNL1        0.1522
     30 O          64.9247   82.8529   10.0362 O.3     1  UNL1       -0.3783
     31 H          65.0606   83.0599    9.0983 H       1  UNL1        0.2109
     32 C          63.1926   83.2872   11.9233 C.ar    1  UNL1        0.0067
     33 C          63.5532   84.3158   12.9537 C.ar    1  UNL1       -0.0018
     34 C          63.1102   84.1401   14.3760 C.ar    1  UNL1        0.0006
     35 C          62.3065   82.9357   14.7679 C.ar    1  UNL1        0.0114
     36 C          61.9459   81.9071   13.7375 C.ar    1  UNL1        0.0574
     37 CL         61.1423   80.7027   14.1294 Cl      1  UNL1       -0.0823
     38 C          62.3889   82.0828   12.3152 C.ar    1  UNL1        0.0095
@<TRIPOS>BOND
     1     8     9    1
     2     9    10    2
     3    10    11    1
     4    11    18    1
     5    18    19    1
     6    19    20    1
     7    20    21    1
     8    21    22    1
     9    21    23    1
    10    11    12    2
    11    12    13    1
    12    13    14    2
    13    14    15    1
    14    15     1    1
    15     1     2    1
    16     2    26    1
    17    26    28    1
    18    28    29    1
    19    29    30    1
    20    29    32    1
    21    32    33   ar
    22    33    34   ar
    23    34    35   ar
    24    35    36   ar
    25    36    37    1
    26    36    38   ar
    27     2     3    2
    28     3     4    1
    29     4     5    2
    30     5     6    1
    31     6     7    2
    32    15    16    2
    33    16    17    1
    34    17     9    1
    35    23    18    1
    36    17    13    1
    37     6     1    1
    38    38    32   ar
    39    22    24    1
    40    22    25    1
    41    26    27    1
    42    30    31    1
@<TRIPOS>MOLECULE
*****
 38 42 0 0 0
SMALL
GASTEIGER

@<TRIPOS>ATOM
      1 C          64.0664   90.2723   14.8995 C.3     1  UNL1        0.2246
      2 C          65.1018   91.2956   14.5381 C.2     1  UNL1        0.0436
      3 C          65.4877   92.3541   15.5284 C.2     1  UNL1        0.0288
      4 C          64.8382   92.3894   16.8800 C.2     1  UNL1        0.0896
      5 N          63.8027   91.3660   17.2414 N.am    1  UNL1       -0.1770
      6 C          63.4169   90.3075   16.2511 C.2     1  UNL1        0.2627
      7 O          62.3814   89.2842   16.6125 O.2     1  UNL1       -0.2719
      8 C          63.7210   84.5480   13.4168 C.3     1  UNL1        0.0312
      9 C          63.2367   85.6080   12.4724 C.2     1  UNL1        0.0136
     10 C          62.6603   85.2213   11.1427 C.2     1  UNL1        0.0107
     11 C          62.1760   86.2812   10.1983 C.2     1  UNL1        0.0509
     12 C          62.2680   87.7280   10.5836 C.2     1  UNL1        0.0613
     13 C          62.8444   88.1147   11.9134 C.2     1  UNL1        0.2246
     14 N          63.0618   89.4490   12.5632 N.2     1  UNL1       -0.0378
     15 C          63.6804   89.2137   13.9093 C.2     1  UNL1        0.3605
     16 N          63.8454   87.7339   14.0913 N.2     1  UNL1       -0.0547
     17 C          63.3287   87.0547   12.8577 C.3     1  UNL1        0.2976
     18 N          61.5996   85.8944    8.8685 N.pl3   1  UNL1       -0.3060
     19 C          60.2265   86.2352    8.3700 C.3     1  UNL1        0.0923
     20 C          60.0734   85.6504    6.9973 C.3     1  UNL1        0.0386
     21 C          61.3518   84.9481    6.6473 C.3     1  UNL1        0.0725
     22 N          61.6370   84.2225    5.3659 N.3     1  UNL1       -0.3208
     23 C          62.2950   85.0989    7.8038 C.3     1  UNL1        0.1062
     24 H          62.5819   83.8395    5.3951 H       1  UNL1        0.1189
     25 H          61.5571   84.8711    4.5828 H       1  UNL1        0.1189
     26 N          65.7514   91.2604   13.1865 N.pl3   1  UNL1       -0.3329
     27 H          66.4831   90.6263   13.0084 H       1  UNL1        0.1466
     28 C          65.2862   92.1914   12.1063 C.3     1  UNL1        0.1211
     29 C          65.9739   93.5090   11.9043 C.3     1  UNL1        0.1522
     30 O          65.9128   94.5588   12.9740 O.3     1  UNL1       -0.3783
     31 H          65.3939   94.2269   13.7234 H       1  UNL1        0.2109
     32 C          66.7227   93.7770   10.6325 C.ar    1  UNL1        0.0067
     33 C          67.5502   92.6936   10.0069 C.ar    1  UNL1       -0.0018
     34 C          68.2990   92.9615    8.7351 C.ar    1  UNL1        0.0006
     35 C          68.2204   94.3129    8.0889 C.ar    1  UNL1        0.0114
     36 C          67.3929   95.3963    8.7145 C.ar    1  UNL1        0.0574
     37 CL         67.3143   96.7477    8.0683 Cl      1  UNL1       -0.0823
     38 C          66.6441   95.1284    9.9863 C.ar    1  UNL1        0.0095
@<TRIPOS>BOND
     1     8     9    1
     2     9    10    2
     3    10    11    1
     4    11    18    1
     5    18    19    1
     6    19    20    1
     7    20    21    1
     8    21    22    1
     9    21    23    1
    10    11    12    2
    11    12    13    1
    12    13    14    2
    13    14    15    1
    14    15     1    1
    15     1     2    1
    16     2    26    1
    17    26    28    1
    18    28    29    1
    19    29    30    1
    20    29    32    1
    21    32    33   ar
    22    33    34   ar
    23    34    35   ar
    24    35    36   ar
    25    36    37    1
    26    36    38   ar
    27     2     3    2
    28     3     4    1
    29     4     5    2
    30     5     6    1
    31     6     7    2
    32    15    16    2
    33    16    17    1
    34    17     9    1
    35    23    18    1
    36    17    13    1
    37     6     1    1
    38    38    32   ar
    39    22    24    1
    40    22    25    1
    41    26    27    1
    42    30    31    1
@<TRIPOS>MOLECULE
*****
 38 42 0 0 0
SMALL
GASTEIGER

@<TRIPOS>ATOM
      1 C          64.6611   90.7604   14.7357 C.3     1  UNL1        0.2246
      2 C          65.6554   91.6746   14.0834 C.2     1  UNL1        0.0436
      3 C          66.1219   92.9079   14.7985 C.2     1  UNL1        0.0288
      4 C          65.5943   93.2270   16.1659 C.2     1  UNL1        0.0896
      5 N          64.6000   92.3127   16.8182 N.am    1  UNL1       -0.1770
      6 C          64.1334   91.0794   16.1031 C.2     1  UNL1        0.2627
      7 O          63.1391   90.1652   16.7554 O.2     1  UNL1       -0.2719
      8 C          61.7433   88.2689   10.2232 C.3     1  UNL1        0.0312
      9 C          62.4078   87.4151   11.2621 C.2     1  UNL1        0.0136
     10 C          62.3360   85.9201   11.1623 C.2     1  UNL1        0.0107
     11 C          63.0006   85.0664   12.2012 C.2     1  UNL1        0.0509
     12 C          63.7370   85.7075   13.3400 C.2     1  UNL1        0.0613
     13 C          63.8088   87.2024   13.4398 C.2     1  UNL1        0.2246
     14 N          64.4579   88.1115   14.4409 N.2     1  UNL1       -0.0378
     15 C          64.1945   89.5271   14.0207 C.2     1  UNL1        0.3605
     16 N          63.3826   89.4930   12.7598 N.2     1  UNL1       -0.0547
     17 C          63.1442   88.0562   12.4008 C.3     1  UNL1        0.2976
     18 N          62.9287   83.5713   12.1014 N.pl3   1  UNL1       -0.3060
     19 C          63.3742   82.7433   10.9327 C.3     1  UNL1        0.0923
     20 C          63.1196   81.3022   11.2618 C.3     1  UNL1        0.0386
     21 C          62.5169   81.2395   12.6339 C.3     1  UNL1        0.0725
     22 N          62.1045   79.9933   13.3597 N.3     1  UNL1       -0.3208
     23 C          62.3989   82.6419   13.1528 C.3     1  UNL1        0.1062
     24 H          61.7254   80.2417   14.2735 H       1  UNL1        0.1189
     25 H          62.9153   79.3866   13.4815 H       1  UNL1        0.1189
     26 N          66.1831   91.3557   12.7160 N.pl3   1  UNL1       -0.3329
     27 H          65.7040   90.7169   12.1401 H       1  UNL1        0.1466
     28 C          67.4409   92.0099   12.2260 C.3     1  UNL1        0.1211
     29 C          67.4997   92.5774   10.8388 C.3     1  UNL1        0.1522
     30 O          67.9786   91.7266    9.7001 O.3     1  UNL1       -0.3783
     31 H          68.2090   90.8442   10.0304 H       1  UNL1        0.2109
     32 C          67.0795   93.9958   10.5904 C.ar    1  UNL1        0.0067
     33 C          66.1858   94.6960   11.5706 C.ar    1  UNL1       -0.0018
     34 C          65.7657   96.1143   11.3221 C.ar    1  UNL1        0.0006
     35 C          66.2393   96.8326   10.0934 C.ar    1  UNL1        0.0114
     36 C          67.1331   96.1324    9.1132 C.ar    1  UNL1        0.0574
     37 CL         67.6067   96.8506    7.8844 Cl      1  UNL1       -0.0823
     38 C          67.5532   94.7140    9.3616 C.ar    1  UNL1        0.0095
@<TRIPOS>BOND
     1     8     9    1
     2     9    10    2
     3    10    11    1
     4    11    18    1
     5    18    19    1
     6    19    20    1
     7    20    21    1
     8    21    22    1
     9    21    23    1
    10    11    12    2
    11    12    13    1
    12    13    14    2
    13    14    15    1
    14    15     1    1
    15     1     2    1
    16     2    26    1
    17    26    28    1
    18    28    29    1
    19    29    30    1
    20    29    32    1
    21    32    33   ar
    22    33    34   ar
    23    34    35   ar
    24    35    36   ar
    25    36    37    1
    26    36    38   ar
    27     2     3    2
    28     3     4    1
    29     4     5    2
    30     5     6    1
    31     6     7    2
    32    15    16    2
    33    16    17    1
    34    17     9    1
    35    23    18    1
    36    17    13    1
    37     6     1    1
    38    38    32   ar
    39    22    24    1
    40    22    25    1
    41    26    27    1
    42    30    31    1
@<TRIPOS>MOLECULE
*****
 38 42 0 0 0
SMALL
GASTEIGER

@<TRIPOS>ATOM
      1 C          62.9625   86.4800   12.3826 C.3     1  UNL1        0.2246
      2 C          63.5822   87.5578   13.2219 C.2     1  UNL1        0.0436
      3 C          64.3239   87.1989   14.4753 C.2     1  UNL1        0.0288
      4 C          64.4461   85.7624   14.8895 C.2     1  UNL1        0.0896
      5 N          63.8264   84.6847   14.0502 N.am    1  UNL1       -0.1770
      6 C          63.0846   85.0435   12.7968 C.2     1  UNL1        0.2627
      7 O          62.4650   83.9657   11.9575 O.2     1  UNL1       -0.2719
      8 C          60.7001   84.8730    7.1497 C.3     1  UNL1        0.0312
      9 C          60.5685   86.2871    7.6323 C.2     1  UNL1        0.0136
     10 C          59.8603   87.3049    6.7881 C.2     1  UNL1        0.0107
     11 C          59.7287   88.7189    7.2706 C.2     1  UNL1        0.0509
     12 C          60.3053   89.1154    8.5974 C.2     1  UNL1        0.0613
     13 C          61.0135   88.0977    9.4416 C.2     1  UNL1        0.2246
     14 N          61.6783   88.1936   10.7828 N.2     1  UNL1       -0.0378
     15 C          62.2207   86.8387   11.1292 C.2     1  UNL1        0.3605
     16 N          61.8912   85.9054   10.0020 N.2     1  UNL1       -0.0547
     17 C          61.1451   86.6836    8.9590 C.3     1  UNL1        0.2976
     18 N          59.0205   89.7367    6.4263 N.pl3   1  UNL1       -0.3060
     19 C          59.6734   90.8003    5.5943 C.3     1  UNL1        0.0923
     20 C          58.5915   91.5904    4.9197 C.3     1  UNL1        0.0386
     21 C          57.2699   91.0152    5.3347 C.3     1  UNL1        0.0725
     22 N          55.9201   91.5003    4.8958 N.3     1  UNL1       -0.3208
     23 C          57.5350   89.8695    6.2659 C.3     1  UNL1        0.1062
     24 H          55.1956   90.9283    5.3298 H       1  UNL1        0.1189
     25 H          55.8468   91.4294    3.8809 H       1  UNL1        0.1189
     26 N          63.4601   88.9943   12.8078 N.pl3   1  UNL1       -0.3329
     27 H          63.7385   89.2717   11.9052 H       1  UNL1        0.1466
     28 C          62.9139   90.0081   13.7690 C.3     1  UNL1        0.1211
     29 C          63.8450   90.9432   14.4821 C.3     1  UNL1        0.1522
     30 O          63.5385   91.3830   15.8831 O.3     1  UNL1       -0.3783
     31 H          62.7091   90.9743   16.1761 H       1  UNL1        0.2109
     32 C          65.0825   91.4386   13.7943 C.ar    1  UNL1        0.0067
     33 C          66.4110   91.3499   14.4850 C.ar    1  UNL1       -0.0018
     34 C          67.6486   91.8453   13.7972 C.ar    1  UNL1        0.0006
     35 C          67.5576   92.4293   12.4185 C.ar    1  UNL1        0.0114
     36 C          66.2291   92.5179   11.7278 C.ar    1  UNL1        0.0574
     37 CL         66.1382   93.1020   10.3492 Cl      1  UNL1       -0.0823
     38 C          64.9916   92.0226   12.4156 C.ar    1  UNL1        0.0095
@<TRIPOS>BOND
     1     8     9    1
     2     9    10    2
     3    10    11    1
     4    11    18    1
     5    18    19    1
     6    19    20    1
     7    20    21    1
     8    21    22    1
     9    21    23    1
    10    11    12    2
    11    12    13    1
    12    13    14    2
    13    14    15    1
    14    15     1    1
    15     1     2    1
    16     2    26    1
    17    26    28    1
    18    28    29    1
    19    29    30    1
    20    29    32    1
    21    32    33   ar
    22    33    34   ar
    23    34    35   ar
    24    35    36   ar
    25    36    37    1
    26    36    38   ar
    27     2     3    2
    28     3     4    1
    29     4     5    2
    30     5     6    1
    31     6     7    2
    32    15    16    2
    33    16    17    1
    34    17     9    1
    35    23    18    1
    36    17    13    1
    37     6     1    1
    38    38    32   ar
    39    22    24    1
    40    22    25    1
    41    26    27    1
    42    30    31    1
@<TRIPOS>MOLECULE
*****
 38 42 0 0 0
SMALL
GASTEIGER

@<TRIPOS>ATOM
      1 C          64.1515   90.0691   12.8466 C.3     1  UNL1        0.2246
      2 C          63.5647   90.5943   11.5700 C.2     1  UNL1        0.0436
      3 C          63.8599   91.9978   11.1306 C.2     1  UNL1        0.0288
      4 C          64.7419   92.8761   11.9678 C.2     1  UNL1        0.0896
      5 N          65.3286   92.3508   13.2444 N.am    1  UNL1       -0.1770
      6 C          65.0334   90.9473   13.6838 C.2     1  UNL1        0.2627
      7 O          65.6202   90.4220   14.9604 O.2     1  UNL1       -0.2719
      8 C          63.4050   86.1339   17.2103 C.3     1  UNL1        0.0312
      9 C          63.2758   85.7122   15.7766 C.2     1  UNL1        0.0136
     10 C          62.9555   84.2859   15.4404 C.2     1  UNL1        0.0107
     11 C          62.8263   83.8642   14.0068 C.2     1  UNL1        0.0509
     12 C          63.0173   84.8687   12.9093 C.2     1  UNL1        0.0613
     13 C          63.3375   86.2950   13.2455 C.2     1  UNL1        0.2246
     14 N          63.5783   87.4994   12.3845 N.2     1  UNL1       -0.0378
     15 C          63.8563   88.6656   13.2861 C.2     1  UNL1        0.3605
     16 N          63.7874   88.1819   14.7043 N.2     1  UNL1       -0.0547
     17 C          63.4668   86.7168   14.6792 C.3     1  UNL1        0.2976
     18 N          62.5060   82.4378   13.6705 N.pl3   1  UNL1       -0.3060
     19 C          61.5807   81.5381   14.4350 C.3     1  UNL1        0.0923
     20 C          61.5577   80.2050   13.7478 C.3     1  UNL1        0.0386
     21 C          62.4687   80.2808   12.5585 C.3     1  UNL1        0.0725
     22 N          62.7451   79.1715   11.5874 N.3     1  UNL1       -0.3208
     23 C          63.0548   81.6607   12.5108 C.3     1  UNL1        0.1062
     24 H          63.4010   79.4969   10.8772 H       1  UNL1        0.1189
     25 H          61.8739   78.8860   11.1404 H       1  UNL1        0.1189
     26 N          62.6828   89.7162   10.7328 N.pl3   1  UNL1       -0.3329
     27 H          63.0820   89.0984   10.0784 H       1  UNL1        0.1466
     28 C          61.1927   89.7792   10.8925 C.3     1  UNL1        0.1211
     29 C          60.3830   88.5166   10.8807 C.3     1  UNL1        0.1522
     30 O          59.4724   88.1988   12.0295 O.3     1  UNL1       -0.3783
     31 H          59.5255   88.9073   12.6898 H       1  UNL1        0.2109
     32 C          60.4840   87.5717    9.7201 C.ar    1  UNL1        0.0067
     33 C          59.3265   87.4127    8.7794 C.ar    1  UNL1       -0.0018
     34 C          59.4275   86.4679    7.6188 C.ar    1  UNL1        0.0006
     35 C          60.6861   85.6819    7.3988 C.ar    1  UNL1        0.0114
     36 C          61.8436   85.8409    8.3395 C.ar    1  UNL1        0.0574
     37 CL         63.1021   85.0550    8.1196 Cl      1  UNL1       -0.0823
     38 C          61.7426   86.7858    9.5001 C.ar    1  UNL1        0.0095
@<TRIPOS>BOND
     1     8     9    1
     2     9    10    2
     3    10    11    1
     4    11    18    1
     5    18    19    1
     6    19    20    1
     7    20    21    1
     8    21    22    1
     9    21    23    1
    10    11    12    2
    11    12    13    1
    12    13    14    2
    13    14    15    1
    14    15     1    1
    15     1     2    1
    16     2    26    1
    17    26    28    1
    18    28    29    1
    19    29    30    1
    20    29    32    1
    21    32    33   ar
    22    33    34   ar
    23    34    35   ar
    24    35    36   ar
    25    36    37    1
    26    36    38   ar
    27     2     3    2
    28     3     4    1
    29     4     5    2
    30     5     6    1
    31     6     7    2
    32    15    16    2
    33    16    17    1
    34    17     9    1
    35    23    18    1
    36    17    13    1
    37     6     1    1
    38    38    32   ar
    39    22    24    1
    40    22    25    1
    41    26    27    1
    42    30    31    1
@<TRIPOS>MOLECULE
*****
 38 42 0 0 0
SMALL
GASTEIGER

@<TRIPOS>ATOM
      1 C          65.1530   91.5658   13.5800 C.3     1  UNL1        0.2246
      2 C          64.9237   91.9907   12.1598 C.2     1  UNL1        0.0436
      3 C          65.3800   93.3432   11.6988 C.2     1  UNL1        0.0288
      4 C          66.0654   94.2708   12.6578 C.2     1  UNL1        0.0896
      5 N          66.2946   93.8459   14.0780 N.am    1  UNL1       -0.1770
      6 C          65.8384   92.4934   14.5390 C.2     1  UNL1        0.2627
      7 O          66.0676   92.0685   15.9592 O.2     1  UNL1       -0.2719
      8 C          62.9935   88.0901   17.8626 C.3     1  UNL1        0.0312
      9 C          63.2966   87.5254   16.5064 C.2     1  UNL1        0.0136
     10 C          63.0531   86.0718   16.2276 C.2     1  UNL1        0.0107
     11 C          63.3562   85.5072   14.8715 C.2     1  UNL1        0.0509
     12 C          63.9028   86.3961   13.7940 C.2     1  UNL1        0.0613
     13 C          64.1463   87.8497   14.0727 C.2     1  UNL1        0.2246
     14 N          64.6739   88.9615   13.2150 N.2     1  UNL1       -0.0378
     15 C          64.6968   90.2133   14.0412 C.2     1  UNL1        0.3605
     16 N          64.1834   89.8752   15.4094 N.2     1  UNL1       -0.0547
     17 C          63.8432   88.4144   15.4289 C.3     1  UNL1        0.2976
     18 N          63.1127   84.0535   14.5928 N.pl3   1  UNL1       -0.3060
     19 C          64.1148   83.0807   14.0456 C.3     1  UNL1        0.0923
     20 C          63.4458   81.7435   13.9269 C.3     1  UNL1        0.0386
     21 C          62.0302   81.8897   14.4008 C.3     1  UNL1        0.0725
     22 N          61.0010   80.7998   14.4538 N.3     1  UNL1       -0.3208
     23 C          61.8243   83.3174   14.8123 C.3     1  UNL1        0.1062
     24 H          60.1253   81.1764   14.8167 H       1  UNL1        0.1189
     25 H          61.3288   80.0521   15.0653 H       1  UNL1        0.1189
     26 N          64.2383   91.0632   11.2008 N.pl3   1  UNL1       -0.3329
     27 H          64.7676   90.4245   10.6704 H       1  UNL1        0.1466
     28 C          62.7467   91.1087   11.0496 C.3     1  UNL1        0.1211
     29 C          61.9100   89.9544   11.5160 C.3     1  UNL1        0.1522
     30 O          61.4930   89.8630   12.9540 O.3     1  UNL1       -0.3783
     31 H          61.8454   90.6238   13.4418 H       1  UNL1        0.2109
     32 C          61.4904   88.8914   10.5445 C.ar    1  UNL1        0.0067
     33 C          62.0205   87.4953   10.6849 C.ar    1  UNL1       -0.0018
     34 C          61.6009   86.4323    9.7133 C.ar    1  UNL1        0.0006
     35 C          60.6511   86.7655    8.6012 C.ar    1  UNL1        0.0114
     36 C          60.1209   88.1616    8.4607 C.ar    1  UNL1        0.0574
     37 CL         59.1711   88.4947    7.3486 Cl      1  UNL1       -0.0823
     38 C          60.5406   89.2245    9.4323 C.ar    1  UNL1        0.0095
@<TRIPOS>BOND
     1     8     9    1
     2     9    10    2
     3    10    11    1
     4    11    18    1
     5    18    19    1
     6    19    20    1
     7    20    21    1
     8    21    22    1
     9    21    23    1
    10    11    12    2
    11    12    13    1
    12    13    14    2
    13    14    15    1
    14    15     1    1
    15     1     2    1
    16     2    26    1
    17    26    28    1
    18    28    29    1
    19    29    30    1
    20    29    32    1
    21    32    33   ar
    22    33    34   ar
    23    34    35   ar
    24    35    36   ar
    25    36    37    1
    26    36    38   ar
    27     2     3    2
    28     3     4    1
    29     4     5    2
    30     5     6    1
    31     6     7    2
    32    15    16    2
    33    16    17    1
    34    17     9    1
    35    23    18    1
    36    17    13    1
    37     6     1    1
    38    38    32   ar
    39    22    24    1
    40    22    25    1
    41    26    27    1
    42    30    31    1
@<TRIPOS>MOLECULE
*****
 38 42 0 0 0
SMALL
GASTEIGER

@<TRIPOS>ATOM
      1 C          62.9879   84.1747   11.5090 C.3     1  UNL1        0.2246
      2 C          62.8471   83.9090   12.9785 C.2     1  UNL1        0.0436
      3 C          63.4763   82.6893   13.5838 C.2     1  UNL1        0.0288
      4 C          64.2464   81.7352   12.7196 C.2     1  UNL1        0.0896
      5 N          64.3872   82.0009   11.2501 N.am    1  UNL1       -0.1770
      6 C          63.7580   83.2207   10.6448 C.2     1  UNL1        0.2627
      7 O          63.8989   83.4863    9.1753 O.2     1  UNL1       -0.2719
      8 C          61.3526   89.8478   11.9841 C.3     1  UNL1        0.0312
      9 C          61.0991   89.0877   10.7160 C.2     1  UNL1        0.0136
     10 C          60.4275   89.7639    9.5577 C.2     1  UNL1        0.0107
     11 C          60.1741   89.0039    8.2897 C.2     1  UNL1        0.0509
     12 C          60.5922   87.5675    8.1798 C.2     1  UNL1        0.0613
     13 C          61.2638   86.8913    9.3381 C.2     1  UNL1        0.2246
     14 N          61.7839   85.4964    9.5219 N.2     1  UNL1       -0.0378
     15 C          62.3588   85.3944   10.9036 C.2     1  UNL1        0.3605
     16 N          62.1940   86.7262   11.5738 N.2     1  UNL1       -0.0547
     17 C          61.5173   87.6514   10.6062 C.3     1  UNL1        0.2976
     18 N          59.5024   89.6802    7.1313 N.pl3   1  UNL1       -0.3060
     19 C          60.1917   90.3972    6.0085 C.3     1  UNL1        0.0923
     20 C          59.1390   90.9183    5.0758 C.3     1  UNL1        0.0386
     21 C          57.7990   90.5234    5.6221 C.3     1  UNL1        0.0725
     22 N          56.4680   90.8383    5.0062 N.3     1  UNL1       -0.3208
     23 C          58.0236   89.7582    6.8925 C.3     1  UNL1        0.1062
     24 H          55.7244   90.4500    5.5866 H       1  UNL1        0.1189
     25 H          56.4198   90.4292    4.0731 H       1  UNL1        0.1189
     26 N          62.0770   84.8630   13.8428 N.pl3   1  UNL1       -0.3329
     27 H          61.2748   85.3104   13.4885 H       1  UNL1        0.1466
     28 C          62.5292   85.1353   15.2468 C.3     1  UNL1        0.1211
     29 C          63.7907   85.9091   15.4917 C.3     1  UNL1        0.1522
     30 O          65.0950   85.1859   15.6517 O.3     1  UNL1       -0.3783
     31 H          64.9473   84.2307   15.5702 H       1  UNL1        0.2109
     32 C          63.7477   87.4061   15.5765 C.ar    1  UNL1        0.0067
     33 C          63.1869   88.0723   16.7978 C.ar    1  UNL1       -0.0018
     34 C          63.1440   89.5693   16.8826 C.ar    1  UNL1        0.0006
     35 C          63.6619   90.4001   15.7461 C.ar    1  UNL1        0.0114
     36 C          64.2227   89.7338   14.5249 C.ar    1  UNL1        0.0574
     37 CL         64.7407   90.5646   13.3884 Cl      1  UNL1       -0.0823
     38 C          64.2657   88.2369   14.4401 C.ar    1  UNL1        0.0095
@<TRIPOS>BOND
     1     8     9    1
     2     9    10    2
     3    10    11    1
     4    11    18    1
     5    18    19    1
     6    19    20    1
     7    20    21    1
     8    21    22    1
     9    21    23    1
    10    11    12    2
    11    12    13    1
    12    13    14    2
    13    14    15    1
    14    15     1    1
    15     1     2    1
    16     2    26    1
    17    26    28    1
    18    28    29    1
    19    29    30    1
    20    29    32    1
    21    32    33   ar
    22    33    34   ar
    23    34    35   ar
    24    35    36   ar
    25    36    37    1
    26    36    38   ar
    27     2     3    2
    28     3     4    1
    29     4     5    2
    30     5     6    1
    31     6     7    2
    32    15    16    2
    33    16    17    1
    34    17     9    1
    35    23    18    1
    36    17    13    1
    37     6     1    1
    38    38    32   ar
    39    22    24    1
    40    22    25    1
    41    26    27    1
    42    30    31    1
@<TRIPOS>MOLECULE
*****
 38 42 0 0 0
SMALL
GASTEIGER

@<TRIPOS>ATOM
      1 C          62.9637   88.0720   12.4202 C.3     1  UNL1        0.2246
      2 C          63.4359   89.2881   13.1606 C.2     1  UNL1        0.0436
      3 C          64.2201   89.1357   14.4302 C.2     1  UNL1        0.0288
      4 C          64.5320   87.7673   14.9595 C.2     1  UNL1        0.0896
      5 N          64.0598   86.5512   14.2191 N.am    1  UNL1       -0.1770
      6 C          63.2756   86.7036   12.9495 C.2     1  UNL1        0.2627
      7 O          62.8034   85.4875   12.2091 O.2     1  UNL1       -0.2719
      8 C          60.1175   85.6061    7.8482 C.3     1  UNL1        0.0312
      9 C          60.2057   87.0984    7.9728 C.2     1  UNL1        0.0136
     10 C          59.5707   87.9764    6.9356 C.2     1  UNL1        0.0107
     11 C          59.6588   89.4685    7.0602 C.2     1  UNL1        0.0509
     12 C          60.3819   90.0828    8.2220 C.2     1  UNL1        0.0613
     13 C          61.0169   89.2048    9.2592 C.2     1  UNL1        0.2246
     14 N          61.7899   89.5211   10.5052 N.2     1  UNL1       -0.0378
     15 C          62.1795   88.2243   11.1506 C.2     1  UNL1        0.3605
     16 N          61.6474   87.1066   10.3036 N.2     1  UNL1       -0.0547
     17 C          60.9288   87.7126    9.1346 C.3     1  UNL1        0.2976
     18 N          59.0237   90.3466    6.0229 N.pl3   1  UNL1       -0.3060
     19 C          57.5530   90.5861    5.8511 C.3     1  UNL1        0.0923
     20 C          57.3682   91.5267    4.6974 C.3     1  UNL1        0.0386
     21 C          58.7247   91.8686    4.1562 C.3     1  UNL1        0.0725
     22 N          59.0085   92.7798    2.9989 N.3     1  UNL1       -0.3208
     23 C          59.7479   91.1392    4.9754 C.3     1  UNL1        0.1062
     24 H          60.0157   92.8327    2.8468 H       1  UNL1        0.1189
     25 H          58.6460   93.7112    3.2027 H       1  UNL1        0.1189
     26 N          63.1240   90.6565   12.6314 N.pl3   1  UNL1       -0.3329
     27 H          62.2969   91.1140   12.9068 H       1  UNL1        0.1466
     28 C          64.0723   91.3280   11.6828 C.3     1  UNL1        0.1211
     29 C          65.1253   92.2581   12.2079 C.3     1  UNL1        0.1522
     30 O          65.2995   92.4352   13.6872 O.3     1  UNL1       -0.3783
     31 H          64.6570   91.8809   14.1571 H       1  UNL1        0.2109
     32 C          66.0043   93.0112   11.2538 C.ar    1  UNL1        0.0067
     33 C          65.8538   94.4965   11.1083 C.ar    1  UNL1       -0.0018
     34 C          66.7327   95.2495   10.1541 C.ar    1  UNL1        0.0006
     35 C          67.7622   94.5172    9.3454 C.ar    1  UNL1        0.0114
     36 C          67.9127   93.0320    9.4909 C.ar    1  UNL1        0.0574
     37 CL         68.9421   92.2997    8.6822 Cl      1  UNL1       -0.0823
     38 C          67.0337   92.2789   10.4451 C.ar    1  UNL1        0.0095
@<TRIPOS>BOND
     1     8     9    1
     2     9    10    2
     3    10    11    1
     4    11    18    1
     5    18    19    1
     6    19    20    1
     7    20    21    1
     8    21    22    1
     9    21    23    1
    10    11    12    2
    11    12    13    1
    12    13    14    2
    13    14    15    1
    14    15     1    1
    15     1     2    1
    16     2    26    1
    17    26    28    1
    18    28    29    1
    19    29    30    1
    20    29    32    1
    21    32    33   ar
    22    33    34   ar
    23    34    35   ar
    24    35    36   ar
    25    36    37    1
    26    36    38   ar
    27     2     3    2
    28     3     4    1
    29     4     5    2
    30     5     6    1
    31     6     7    2
    32    15    16    2
    33    16    17    1
    34    17     9    1
    35    23    18    1
    36    17    13    1
    37     6     1    1
    38    38    32   ar
    39    22    24    1
    40    22    25    1
    41    26    27    1
    42    30    31    1
