@<TRIPOS>MOLECULE
*****
 30 32 0 0 0
SMALL
GASTEIGER

@<TRIPOS>ATOM
      1 C          65.3545   92.1152   12.4354 C.ar    1  UNL1       -0.0004
      2 C          65.0498   91.1721   13.5612 C.ar    1  UNL1       -0.0024
      3 C          63.9515   90.1608   13.4160 C.ar    1  UNL1       -0.0002
      4 C          63.1579   90.0928   12.1450 C.ar    1  UNL1        0.0030
      5 C          62.0595   89.0815   11.9999 C.ar    1  UNL1        0.0369
      6 C          61.2659   89.0134   10.7289 C.ar    1  UNL1        0.1386
      7 C          61.5706   89.9566    9.6030 C.ar    1  UNL1        0.0369
      8 C          62.6689   90.9679    9.7482 C.ar    1  UNL1        0.0031
      9 C          63.4625   91.0359   11.0192 C.ar    1  UNL1       -0.0001
     10 C          64.5608   92.0472   11.1644 C.ar    1  UNL1       -0.0024
     11 C          66.4528   93.1265   12.5805 C.3     1  UNL1        0.1240
     12 N          67.3549   93.0873   13.7783 N.ar    1  UNL1       -0.3045
     13 C          67.2288   93.9407   15.0054 C.ar    1  UNL1        0.0983
     14 C          68.3374   93.5687   15.9448 C.ar    1  UNL1        0.1193
     15 N          69.1488   92.4853   15.2983 N.ar    1  UNL1       -0.2223
     16 C          68.5416   92.1878   13.9593 C.ar    1  UNL1        0.1788
     17 C          66.6490   94.1770   11.5279 C.3     1  UNL1        0.0827
     18 C          66.0718   95.5482   11.7199 C.3     1  UNL1        0.0197
     19 N          67.4224   93.8563   10.2833 N.3     1  UNL1       -0.2708
     20 C          67.5981   94.8995    9.2198 C.3     1  UNL1        0.0897
     21 C          68.7605   92.1597    8.8408 C.3     1  UNL1        0.0188
     22 C          68.0199   92.4925   10.1020 C.3     1  UNL1        0.0722
     23 O          60.1676   88.0022   10.5837 O.3     1  UNL1       -0.4751
     24 C          60.5017   86.5459   10.4503 C.3     1  UNL1        0.2103
     25 C          61.0911   86.0256    9.1728 C.3     1  UNL1        0.0724
     26 C          62.3095   85.5709    9.9202 C.3     1  UNL1        0.0093
     27 C          59.8726   86.4803    8.4255 C.3     1  UNL1        0.0093
     28 C          61.6804   85.5053    7.8954 C.2     1  UNL1        0.0532
     29 O          60.7957   85.2461    6.7121 O.co2   1  UNL1       -0.5491
     30 O          63.1545   85.2442    7.8012 O.co2   1  UNL1       -0.5491
@<TRIPOS>UNITY_ATOM_ATTR
29 1
charge -1
@<TRIPOS>BOND
     1    21    22    1
     2    22    19    1
     3    19    20    1
     4    19    17    1
     5    17    18    1
     6    17    11    1
     7    11     1    1
     8     1     2   ar
     9     2     3   ar
    10     3     4   ar
    11     4     5   ar
    12     5     6   ar
    13     6    23    1
    14    23    24    1
    15    24    25    1
    16    25    26    1
    17    25    27    1
    18    25    28    1
    19    28    29   ar
    20    28    30   ar
    21     6     7   ar
    22     7     8   ar
    23     8     9   ar
    24     9    10   ar
    25    11    12    1
    26    12    13   ar
    27    13    14   ar
    28    14    15   ar
    29    15    16   ar
    30    10     1   ar
    31    16    12   ar
    32     9     4   ar
@<TRIPOS>MOLECULE
*****
 30 32 0 0 0
SMALL
GASTEIGER

@<TRIPOS>ATOM
      1 C          62.7767   85.6197   12.0240 C.ar    1  UNL1       -0.0004
      2 C          63.0961   87.0394   12.3877 C.ar    1  UNL1       -0.0024
      3 C          62.5236   88.1672   11.5813 C.ar    1  UNL1       -0.0002
      4 C          61.6317   87.8752   10.4112 C.ar    1  UNL1        0.0030
      5 C          61.0592   89.0031    9.6047 C.ar    1  UNL1        0.0369
      6 C          60.1672   88.7111    8.4346 C.ar    1  UNL1        0.1386
      7 C          59.8478   87.2913    8.0709 C.ar    1  UNL1        0.0369
      8 C          60.4203   86.1636    8.8773 C.ar    1  UNL1        0.0031
      9 C          61.3123   86.4555   10.0474 C.ar    1  UNL1       -0.0001
     10 C          61.8848   85.3278   10.8538 C.ar    1  UNL1       -0.0024
     11 C          63.3492   84.4919   12.8304 C.3     1  UNL1        0.1240
     12 N          63.2542   83.0834   12.3231 N.ar    1  UNL1       -0.3045
     13 C          63.8081   82.5744   11.0254 C.ar    1  UNL1        0.0983
     14 C          63.4848   81.1131   10.9248 C.ar    1  UNL1        0.1193
     15 N          62.7310   80.7190   12.1603 N.ar    1  UNL1       -0.2223
     16 C          62.5885   81.9367   13.0245 C.ar    1  UNL1        0.1788
     17 C          64.0168   84.7725   14.1440 C.3     1  UNL1        0.0827
     18 C          65.5134   84.7565   14.2433 C.3     1  UNL1        0.0197
     19 N          63.1877   85.0691   15.3584 N.3     1  UNL1       -0.2708
     20 C          61.9638   84.2518   15.6489 C.3     1  UNL1        0.0897
     21 C          62.7734   86.4569   17.5153 C.3     1  UNL1        0.0188
     22 C          63.5824   86.1829   16.2822 C.3     1  UNL1        0.0722
     23 O          59.5947   89.8389    7.6282 O.3     1  UNL1       -0.4751
     24 C          59.6101   89.7728    6.1297 C.3     1  UNL1        0.2103
     25 C          58.9585   90.8575    5.3243 C.3     1  UNL1        0.0724
     26 C          57.6124   90.4128    5.8146 C.3     1  UNL1        0.0093
     27 C          60.3045   91.3022    4.8341 C.3     1  UNL1        0.0093
     28 C          58.3068   91.9422    4.5190 C.2     1  UNL1        0.0532
     29 O          56.8591   92.2702    4.7352 O.co2   1  UNL1       -0.5491
     30 O          59.1027   92.6991    3.4974 O.co2   1  UNL1       -0.5491
@<TRIPOS>UNITY_ATOM_ATTR
29 1
charge -1
@<TRIPOS>BOND
     1    21    22    1
     2    22    19    1
     3    19    20    1
     4    19    17    1
     5    17    18    1
     6    17    11    1
     7    11     1    1
     8     1     2   ar
     9     2     3   ar
    10     3     4   ar
    11     4     5   ar
    12     5     6   ar
    13     6    23    1
    14    23    24    1
    15    24    25    1
    16    25    26    1
    17    25    27    1
    18    25    28    1
    19    28    29   ar
    20    28    30   ar
    21     6     7   ar
    22     7     8   ar
    23     8     9   ar
    24     9    10   ar
    25    11    12    1
    26    12    13   ar
    27    13    14   ar
    28    14    15   ar
    29    15    16   ar
    30    10     1   ar
    31    16    12   ar
    32     9     4   ar
@<TRIPOS>MOLECULE
*****
 30 32 0 0 0
SMALL
GASTEIGER

@<TRIPOS>ATOM
      1 C          63.5188   85.5958   12.8810 C.ar    1  UNL1       -0.0004
      2 C          64.2106   85.5403   14.2107 C.ar    1  UNL1       -0.0024
      3 C          64.5609   86.8105   14.9275 C.ar    1  UNL1       -0.0002
      4 C          64.2194   88.1362   14.3145 C.ar    1  UNL1        0.0030
      5 C          64.5697   89.4065   15.0313 C.ar    1  UNL1        0.0369
      6 C          64.2281   90.7322   14.4183 C.ar    1  UNL1        0.1386
      7 C          63.5363   90.7877   13.0885 C.ar    1  UNL1        0.0369
      8 C          63.1860   89.5175   12.3718 C.ar    1  UNL1        0.0031
      9 C          63.5276   88.1918   12.9847 C.ar    1  UNL1       -0.0001
     10 C          63.1773   86.9215   12.2680 C.ar    1  UNL1       -0.0024
     11 C          63.1685   84.3255   12.1641 C.3     1  UNL1        0.1240
     12 N          62.6604   83.1442   12.9364 N.ar    1  UNL1       -0.3045
     13 C          62.4233   81.7683   12.3882 C.ar    1  UNL1        0.0983
     14 C          61.9166   80.9051   13.5054 C.ar    1  UNL1        0.1193
     15 N          61.8405   81.7476   14.7441 N.ar    1  UNL1       -0.2223
     16 C          62.3002   83.1314   14.3924 C.ar    1  UNL1        0.1788
     17 C          63.3263   84.2366   10.6752 C.3     1  UNL1        0.0827
     18 C          64.2792   83.2428   10.0799 C.3     1  UNL1        0.0197
     19 N          62.5311   85.1415    9.7813 N.3     1  UNL1       -0.2708
     20 C          63.0255   85.4550    8.4002 C.3     1  UNL1        0.0897
     21 C          60.5844   86.8382    9.4963 C.3     1  UNL1        0.0188
     22 C          61.2416   85.7329   10.2685 C.3     1  UNL1        0.0722
     23 O          64.5784   92.0025   15.1351 O.3     1  UNL1       -0.4751
     24 C          66.0086   92.4476   15.2169 C.3     1  UNL1        0.2103
     25 C          66.8924   92.3577   14.0083 C.3     1  UNL1        0.0724
     26 C          67.7260   91.3171   14.6953 C.3     1  UNL1        0.0093
     27 C          66.0587   93.3984   13.3213 C.3     1  UNL1        0.0093
     28 C          67.7761   92.2679   12.7997 C.2     1  UNL1        0.0532
     29 O          69.1636   91.7115   12.9248 O.co2   1  UNL1       -0.5491
     30 O          67.2726   92.7343   11.4660 O.co2   1  UNL1       -0.5491
@<TRIPOS>UNITY_ATOM_ATTR
29 1
charge -1
@<TRIPOS>BOND
     1    21    22    1
     2    22    19    1
     3    19    20    1
     4    19    17    1
     5    17    18    1
     6    17    11    1
     7    11     1    1
     8     1     2   ar
     9     2     3   ar
    10     3     4   ar
    11     4     5   ar
    12     5     6   ar
    13     6    23    1
    14    23    24    1
    15    24    25    1
    16    25    26    1
    17    25    27    1
    18    25    28    1
    19    28    29   ar
    20    28    30   ar
    21     6     7   ar
    22     7     8   ar
    23     8     9   ar
    24     9    10   ar
    25    11    12    1
    26    12    13   ar
    27    13    14   ar
    28    14    15   ar
    29    15    16   ar
    30    10     1   ar
    31    16    12   ar
    32     9     4   ar
@<TRIPOS>MOLECULE
*****
 30 32 0 0 0
SMALL
GASTEIGER

@<TRIPOS>ATOM
      1 C          65.1924   92.0044   12.1952 C.ar    1  UNL1       -0.0004
      2 C          64.9934   91.0727   13.3538 C.ar    1  UNL1       -0.0024
      3 C          63.9276   90.0190   13.2943 C.ar    1  UNL1       -0.0002
      4 C          63.0608   89.8969   12.0762 C.ar    1  UNL1        0.0030
      5 C          61.9949   88.8430   12.0167 C.ar    1  UNL1        0.0369
      6 C          61.1282   88.7209   10.7986 C.ar    1  UNL1        0.1386
      7 C          61.3273   89.6526    9.6400 C.ar    1  UNL1        0.0369
      8 C          62.3931   90.7064    9.6995 C.ar    1  UNL1        0.0031
      9 C          63.2598   90.8285   10.9176 C.ar    1  UNL1       -0.0001
     10 C          64.3256   91.8823   10.9771 C.ar    1  UNL1       -0.0024
     11 C          66.2583   93.0582   12.2547 C.3     1  UNL1        0.1240
     12 N          66.5087   93.9394   11.0670 N.ar    1  UNL1       -0.3045
     13 C          67.2669   93.5579    9.8303 C.ar    1  UNL1        0.0983
     14 C          67.2718   94.7396    8.9064 C.ar    1  UNL1        0.1193
     15 N          66.5166   95.8515    9.5721 N.ar    1  UNL1       -0.2223
     16 C          66.0450   95.3570   10.9074 C.ar    1  UNL1        0.1788
     17 C          67.0736   93.2308   13.5019 C.3     1  UNL1        0.0827
     18 C          66.6278   94.1938   14.5621 C.3     1  UNL1        0.0197
     19 N          68.3346   92.4404   13.6889 N.3     1  UNL1       -0.2708
     20 C          68.8468   91.5715   12.5786 C.3     1  UNL1        0.0897
     21 C          68.4174   92.0997   16.2632 C.3     1  UNL1        0.0188
     22 C          69.0835   92.5188   14.9862 C.3     1  UNL1        0.0722
     23 O          60.0624   87.6671   10.7391 O.3     1  UNL1       -0.4751
     24 C          59.5495   87.1932    9.4115 C.3     1  UNL1        0.2103
     25 C          60.4179   86.3432    8.5320 C.3     1  UNL1        0.0724
     26 C          61.2077   85.9095    9.7311 C.3     1  UNL1        0.0093
     27 C          59.6280   86.7770    7.3329 C.3     1  UNL1        0.0093
     28 C          61.2862   85.4933    7.6526 C.2     1  UNL1        0.0532
     29 O          60.6885   84.7701    6.4821 O.co2   1  UNL1       -0.5491
     30 O          62.7522   85.3664    7.9435 O.co2   1  UNL1       -0.5491
@<TRIPOS>UNITY_ATOM_ATTR
29 1
charge -1
@<TRIPOS>BOND
     1    21    22    1
     2    22    19    1
     3    19    20    1
     4    19    17    1
     5    17    18    1
     6    17    11    1
     7    11     1    1
     8     1     2   ar
     9     2     3   ar
    10     3     4   ar
    11     4     5   ar
    12     5     6   ar
    13     6    23    1
    14    23    24    1
    15    24    25    1
    16    25    26    1
    17    25    27    1
    18    25    28    1
    19    28    29   ar
    20    28    30   ar
    21     6     7   ar
    22     7     8   ar
    23     8     9   ar
    24     9    10   ar
    25    11    12    1
    26    12    13   ar
    27    13    14   ar
    28    14    15   ar
    29    15    16   ar
    30    10     1   ar
    31    16    12   ar
    32     9     4   ar
@<TRIPOS>MOLECULE
*****
 30 32 0 0 0
SMALL
GASTEIGER

@<TRIPOS>ATOM
      1 C          62.4302   88.2142   10.4645 C.ar    1  UNL1       -0.0004
      2 C          62.4374   89.6415   10.0031 C.ar    1  UNL1       -0.0024
      3 C          62.9402   90.7217   10.9143 C.ar    1  UNL1       -0.0002
      4 C          63.4359   90.3747   12.2868 C.ar    1  UNL1        0.0030
      5 C          63.9388   91.4550   13.1980 C.ar    1  UNL1        0.0369
      6 C          64.4345   91.1080   14.5705 C.ar    1  UNL1        0.1386
      7 C          64.4273   89.6807   15.0319 C.ar    1  UNL1        0.0369
      8 C          63.9245   88.6004   14.1208 C.ar    1  UNL1        0.0031
      9 C          63.4288   88.9474   12.7482 C.ar    1  UNL1       -0.0001
     10 C          62.9259   87.8672   11.8371 C.ar    1  UNL1       -0.0024
     11 C          61.9273   87.1339    9.5534 C.3     1  UNL1        0.1240
     12 N          60.6719   87.3459    8.7603 N.ar    1  UNL1       -0.3045
     13 C          60.1143   88.6700    8.3291 C.ar    1  UNL1        0.0983
     14 C          58.8514   88.4134    7.5615 C.ar    1  UNL1        0.1193
     15 N          58.6285   86.9307    7.5182 N.ar    1  UNL1       -0.2223
     16 C          59.7536   86.2709    8.2591 C.ar    1  UNL1        0.1788
     17 C          62.6798   85.8418    9.4354 C.3     1  UNL1        0.0827
     18 C          63.4006   85.5071    8.1631 C.3     1  UNL1        0.0197
     19 N          62.7116   84.8842   10.5895 N.3     1  UNL1       -0.2708
     20 C          61.8584   85.1367   11.7972 C.3     1  UNL1        0.0897
     21 C          64.3725   83.2584   11.7506 C.3     1  UNL1        0.0188
     22 C          63.5966   83.6743   10.5361 C.3     1  UNL1        0.0722
     23 O          64.9374   92.1882   15.4816 O.3     1  UNL1       -0.4751
     24 C          66.3288   92.7230   15.3143 C.3     1  UNL1        0.2103
     25 C          67.0516   92.5390   14.0129 C.3     1  UNL1        0.0724
     26 C          67.6713   91.2770   14.5355 C.3     1  UNL1        0.0093
     27 C          66.4319   93.8011   13.4903 C.3     1  UNL1        0.0093
     28 C          67.7744   92.3551   12.7115 C.2     1  UNL1        0.0532
     29 O          67.1733   92.8756   11.4396 O.co2   1  UNL1       -0.5491
     30 O          69.0984   91.6506   12.6820 O.co2   1  UNL1       -0.5491
@<TRIPOS>UNITY_ATOM_ATTR
29 1
charge -1
@<TRIPOS>BOND
     1    21    22    1
     2    22    19    1
     3    19    20    1
     4    19    17    1
     5    17    18    1
     6    17    11    1
     7    11     1    1
     8     1     2   ar
     9     2     3   ar
    10     3     4   ar
    11     4     5   ar
    12     5     6   ar
    13     6    23    1
    14    23    24    1
    15    24    25    1
    16    25    26    1
    17    25    27    1
    18    25    28    1
    19    28    29   ar
    20    28    30   ar
    21     6     7   ar
    22     7     8   ar
    23     8     9   ar
    24     9    10   ar
    25    11    12    1
    26    12    13   ar
    27    13    14   ar
    28    14    15   ar
    29    15    16   ar
    30    10     1   ar
    31    16    12   ar
    32     9     4   ar
@<TRIPOS>MOLECULE
*****
 30 32 0 0 0
SMALL
GASTEIGER

@<TRIPOS>ATOM
      1 C          62.5569   84.8583   11.5236 C.ar    1  UNL1       -0.0004
      2 C          62.8821   84.3938   10.1349 C.ar    1  UNL1       -0.0024
      3 C          62.2642   85.0775    8.9514 C.ar    1  UNL1       -0.0002
      4 C          61.3211   86.2257    9.1566 C.ar    1  UNL1        0.0030
      5 C          60.7032   86.9095    7.9730 C.ar    1  UNL1        0.0369
      6 C          59.7601   88.0577    8.1782 C.ar    1  UNL1        0.1386
      7 C          59.4349   88.5222    9.5669 C.ar    1  UNL1        0.0369
      8 C          60.0528   87.8385   10.7504 C.ar    1  UNL1        0.0031
      9 C          60.9959   86.6903   10.5452 C.ar    1  UNL1       -0.0001
     10 C          61.6138   86.0065   11.7287 C.ar    1  UNL1       -0.0024
     11 C          63.1748   84.1745   12.7071 C.3     1  UNL1        0.1240
     12 N          63.2827   84.8957   14.0179 N.ar    1  UNL1       -0.3045
     13 C          64.2822   85.9611   14.3585 C.ar    1  UNL1        0.0983
     14 C          64.0273   86.4020   15.7693 C.ar    1  UNL1        0.1193
     15 N          62.8702   85.6092   16.3008 N.ar    1  UNL1       -0.2223
     16 C          62.4100   84.6783   15.2184 C.ar    1  UNL1        0.1788
     17 C          63.6847   82.7697   12.5799 C.3     1  UNL1        0.0827
     18 C          65.1069   82.5220   12.1723 C.3     1  UNL1        0.0197
     19 N          62.7725   81.6124   12.8602 N.3     1  UNL1       -0.2708
     20 C          62.7457   80.4360   11.9298 C.3     1  UNL1        0.0897
     21 C          60.6493   80.7849   14.1082 C.3     1  UNL1        0.0188
     22 C          61.8871   81.6314   14.0708 C.3     1  UNL1        0.0722
     23 O          59.1422   88.7415    6.9947 O.3     1  UNL1       -0.4751
     24 C          59.9431   89.7256    6.1946 C.3     1  UNL1        0.2103
     25 C          59.2473   90.8062    5.4212 C.3     1  UNL1        0.0724
     26 C          57.9301   90.3608    5.9839 C.3     1  UNL1        0.0093
     27 C          60.5644   91.2517    4.8585 C.3     1  UNL1        0.0093
     28 C          58.5515   91.8869    4.6479 C.2     1  UNL1        0.0532
     29 O          57.1001   92.1720    4.8975 O.co2   1  UNL1       -0.5491
     30 O          59.3070   92.6824    3.6250 O.co2   1  UNL1       -0.5491
@<TRIPOS>UNITY_ATOM_ATTR
29 1
charge -1
@<TRIPOS>BOND
     1    21    22    1
     2    22    19    1
     3    19    20    1
     4    19    17    1
     5    17    18    1
     6    17    11    1
     7    11     1    1
     8     1     2   ar
     9     2     3   ar
    10     3     4   ar
    11     4     5   ar
    12     5     6   ar
    13     6    23    1
    14    23    24    1
    15    24    25    1
    16    25    26    1
    17    25    27    1
    18    25    28    1
    19    28    29   ar
    20    28    30   ar
    21     6     7   ar
    22     7     8   ar
    23     8     9   ar
    24     9    10   ar
    25    11    12    1
    26    12    13   ar
    27    13    14   ar
    28    14    15   ar
    29    15    16   ar
    30    10     1   ar
    31    16    12   ar
    32     9     4   ar
@<TRIPOS>MOLECULE
*****
 30 32 0 0 0
SMALL
GASTEIGER

@<TRIPOS>ATOM
      1 C          62.5312   87.6279   10.7581 C.ar    1  UNL1       -0.0004
      2 C          62.4371   88.9795   10.1146 C.ar    1  UNL1       -0.0024
      3 C          62.8863   90.1993   10.8630 C.ar    1  UNL1       -0.0002
      4 C          63.4298   90.0675   12.2549 C.ar    1  UNL1        0.0030
      5 C          63.8791   91.2874   13.0033 C.ar    1  UNL1        0.0369
      6 C          64.4225   91.1555   14.3952 C.ar    1  UNL1        0.1386
      7 C          64.5166   89.8038   15.0387 C.ar    1  UNL1        0.0369
      8 C          64.0673   88.5840   14.2903 C.ar    1  UNL1        0.0031
      9 C          63.5239   88.7158   12.8984 C.ar    1  UNL1       -0.0001
     10 C          63.0746   87.4960   12.1500 C.ar    1  UNL1       -0.0024
     11 C          62.0819   86.4080   10.0097 C.3     1  UNL1        0.1240
     12 N          62.6459   85.0630   10.3602 N.ar    1  UNL1       -0.3045
     13 C          62.3695   84.2911   11.6163 C.ar    1  UNL1        0.0983
     14 C          63.1382   83.0048   11.5486 C.ar    1  UNL1        0.1193
     15 N          63.8896   82.9816   10.2507 N.ar    1  UNL1       -0.2223
     16 C          63.5854   84.2537    9.5162 C.ar    1  UNL1        0.1788
     17 C          61.0686   86.5331    8.9109 C.3     1  UNL1        0.0827
     18 C          61.2401   85.7546    7.6402 C.3     1  UNL1        0.0197
     19 N          59.8837   87.4367    9.0826 N.3     1  UNL1       -0.2708
     20 C          59.4974   87.9151   10.4508 C.3     1  UNL1        0.0897
     21 C          59.4570   89.1094    7.1410 C.3     1  UNL1        0.0188
     22 C          59.0851   87.8619    7.8862 C.3     1  UNL1        0.0722
     23 O          64.8718   92.3754   15.1436 O.3     1  UNL1       -0.4751
     24 C          66.2947   92.8382   15.0381 C.3     1  UNL1        0.2103
     25 C          67.0583   92.6312   13.7637 C.3     1  UNL1        0.0724
     26 C          66.2868   93.7453   13.1206 C.3     1  UNL1        0.0093
     27 C          67.8297   91.5171   14.4068 C.3     1  UNL1        0.0093
     28 C          67.8218   92.4242   12.4893 C.2     1  UNL1        0.0532
     29 O          69.0260   91.5299   12.4732 O.co2   1  UNL1       -0.5491
     30 O          67.3812   93.1115   11.2309 O.co2   1  UNL1       -0.5491
@<TRIPOS>UNITY_ATOM_ATTR
29 1
charge -1
@<TRIPOS>BOND
     1    21    22    1
     2    22    19    1
     3    19    20    1
     4    19    17    1
     5    17    18    1
     6    17    11    1
     7    11     1    1
     8     1     2   ar
     9     2     3   ar
    10     3     4   ar
    11     4     5   ar
    12     5     6   ar
    13     6    23    1
    14    23    24    1
    15    24    25    1
    16    25    26    1
    17    25    27    1
    18    25    28    1
    19    28    29   ar
    20    28    30   ar
    21     6     7   ar
    22     7     8   ar
    23     8     9   ar
    24     9    10   ar
    25    11    12    1
    26    12    13   ar
    27    13    14   ar
    28    14    15   ar
    29    15    16   ar
    30    10     1   ar
    31    16    12   ar
    32     9     4   ar
@<TRIPOS>MOLECULE
*****
 30 32 0 0 0
SMALL
GASTEIGER

@<TRIPOS>ATOM
      1 C          62.9061   84.6726   11.8609 C.ar    1  UNL1       -0.0004
      2 C          63.4184   84.1916   10.5358 C.ar    1  UNL1       -0.0024
      3 C          62.9263   84.8232    9.2674 C.ar    1  UNL1       -0.0002
      4 C          61.9220   85.9359    9.3242 C.ar    1  UNL1        0.0030
      5 C          61.4299   86.5675    8.0557 C.ar    1  UNL1        0.0369
      6 C          60.4255   87.6801    8.1124 C.ar    1  UNL1        0.1386
      7 C          59.9132   88.1612    9.4377 C.ar    1  UNL1        0.0369
      8 C          60.4053   87.5295   10.7061 C.ar    1  UNL1        0.0031
      9 C          61.4096   86.4169   10.6493 C.ar    1  UNL1       -0.0001
     10 C          61.9017   85.7853   11.9177 C.ar    1  UNL1       -0.0024
     11 C          63.3982   84.0410   13.1294 C.3     1  UNL1        0.1240
     12 N          62.9647   82.6517   13.4927 N.ar    1  UNL1       -0.3045
     13 C          63.5009   81.3792   12.9068 C.ar    1  UNL1        0.0983
     14 C          62.7865   80.2321   13.5577 C.ar    1  UNL1        0.1193
     15 N          61.8087   80.7955   14.5458 N.ar    1  UNL1       -0.2223
     16 C          61.9188   82.2910   14.5056 C.ar    1  UNL1        0.1788
     17 C          64.3237   84.7987   14.0346 C.3     1  UNL1        0.0827
     18 C          65.7965   84.5150   14.0090 C.3     1  UNL1        0.0197
     19 N          63.7766   85.8400   14.9653 N.3     1  UNL1       -0.2708
     20 C          64.1222   87.2852   14.7603 C.3     1  UNL1        0.0897
     21 C          62.8086   86.2861   17.3347 C.3     1  UNL1        0.0188
     22 C          62.8838   85.4361   16.1010 C.3     1  UNL1        0.0722
     23 O          59.9334   88.3118    6.8440 O.3     1  UNL1       -0.4751
     24 C          58.8512   89.3494    6.8936 C.3     1  UNL1        0.2103
     25 C          58.7977   90.4275    5.8521 C.3     1  UNL1        0.0724
     26 C          57.2987   90.3785    5.8785 C.3     1  UNL1        0.0093
     27 C          60.2966   90.4765    5.8257 C.3     1  UNL1        0.0093
     28 C          58.7441   91.5056    4.8106 C.2     1  UNL1        0.0532
     29 O          57.4219   92.0704    4.3831 O.co2   1  UNL1       -0.5491
     30 O          60.0128   92.0190    4.1967 O.co2   1  UNL1       -0.5491
@<TRIPOS>UNITY_ATOM_ATTR
29 1
charge -1
@<TRIPOS>BOND
     1    21    22    1
     2    22    19    1
     3    19    20    1
     4    19    17    1
     5    17    18    1
     6    17    11    1
     7    11     1    1
     8     1     2   ar
     9     2     3   ar
    10     3     4   ar
    11     4     5   ar
    12     5     6   ar
    13     6    23    1
    14    23    24    1
    15    24    25    1
    16    25    26    1
    17    25    27    1
    18    25    28    1
    19    28    29   ar
    20    28    30   ar
    21     6     7   ar
    22     7     8   ar
    23     8     9   ar
    24     9    10   ar
    25    11    12    1
    26    12    13   ar
    27    13    14   ar
    28    14    15   ar
    29    15    16   ar
    30    10     1   ar
    31    16    12   ar
    32     9     4   ar
