@<TRIPOS>MOLECULE
*****
 40 44 0 0 0
SMALL
GASTEIGER

@<TRIPOS>ATOM
      1 C          65.3107   92.3560   13.2690 C.ar    1  UNL1        0.2218
      2 N          66.2914   91.5243   14.0415 N.ar    1  UNL1       -0.2119
      3 C          65.8970   90.1631   14.5331 C.ar    1  UNL1        0.1066
      4 C          64.5220   89.6336   14.2522 C.ar    1  UNL1        0.0744
      5 C          63.5414   90.4652   13.4797 C.ar    1  UNL1        0.1348
      6 N          63.9357   91.8264   12.9881 N.ar    1  UNL1       -0.1987
      7 C          64.1276   88.2724   14.7438 C.ar    1  UNL1        0.1149
      8 N          64.0899   87.0161   13.9252 N.ar    1  UNL1       -0.2382
      9 C          63.6407   85.8958   14.8158 C.ar    1  UNL1        0.0883
     10 C          63.4007   86.4597   16.1848 C.ar    1  UNL1        0.0560
     11 S          63.7017   87.9286   16.1403 S.2     1  UNL1       -0.0658
     12 C          63.4627   84.4631   14.4087 C.ar    1  UNL1        0.0182
     13 C          64.4200   83.8342   13.4402 C.ar    1  UNL1        0.0015
     14 C          64.2420   82.4015   13.0332 C.ar    1  UNL1        0.0000
     15 C          63.1067   81.5977   13.5946 C.ar    1  UNL1        0.0000
     16 C          62.1495   82.2267   14.5631 C.ar    1  UNL1        0.0000
     17 C          62.3275   83.6594   14.9701 C.ar    1  UNL1        0.0015
     18 N          65.7051   93.7171   12.7774 N.pl3   1  UNL1       -0.2824
     19 H          65.4848   94.5156   13.3095 H       1  UNL1        0.1551
     20 C          67.3575   96.6928    8.8512 C.3     1  UNL1        0.0521
     21 C          67.2613   95.3496    9.5120 C.ar    1  UNL1        0.0606
     22 C          66.5313   95.2049   10.8143 C.ar    1  UNL1        0.0294
     23 C          66.4351   93.8617   11.4750 C.ar    1  UNL1        0.0532
     24 C          67.0690   92.6632   10.8334 C.ar    1  UNL1        0.0353
     25 C          67.7990   92.8078    9.5311 C.ar    1  UNL1        0.0997
     26 N          67.8952   94.1510    8.8704 N.ar    1  UNL1       -0.2481
     27 N          62.1663   89.9357   13.1988 N.pl3   1  UNL1       -0.3172
     28 H          61.4773   89.9576   13.9017 H       1  UNL1        0.1482
     29 C          61.8410   89.3728   11.8470 C.3     1  UNL1        0.0998
     30 C          62.4248   88.1285   11.2463 C.3     1  UNL1        0.0271
     31 C          61.8195   87.9421    9.8866 C.3     1  UNL1        0.0604
     32 C          60.8615   89.0712    9.6470 C.3     1  UNL1        0.1412
     33 O          60.0353   89.2796    8.4125 O.3     1  UNL1       -0.3818
     34 C          60.8749   89.9555   10.8586 C.3     1  UNL1        0.1549
     35 O          60.0643   91.2032   11.0484 O.3     1  UNL1       -0.3803
     36 H          60.2132   88.5658    7.7802 H       1  UNL1        0.2104
     37 H          59.5205   91.3585   10.2603 H       1  UNL1        0.2105
     38 C          62.1194   86.8230    8.9339 C.3     1  UNL1        0.1396
     39 O          61.0525   86.3214    8.0064 O.3     1  UNL1       -0.3819
     40 H          60.3428   85.9089    8.5231 H       1  UNL1        0.2104
@<TRIPOS>BOND
     1    20    21    1
     2    21    22   ar
     3    22    23   ar
     4    23    18    1
     5    18     1    1
     6     1     2   ar
     7     2     3   ar
     8     3     4   ar
     9     4     7    1
    10     7     8   ar
    11     8     9   ar
    12     9    12    1
    13    12    13   ar
    14    13    14   ar
    15    14    15   ar
    16    15    16   ar
    17    16    17   ar
    18     9    10   ar
    19    10    11   ar
    20     4     5   ar
    21     5    27    1
    22    29    27    1
    23    29    30    1
    24    30    31    1
    25    31    38    1
    26    38    39    1
    27    31    32    1
    28    32    33    1
    29    32    34    1
    30    34    35    1
    31     5     6   ar
    32    23    24   ar
    33    24    25   ar
    34    25    26   ar
    35    26    21   ar
    36     6     1   ar
    37    11     7   ar
    38    34    29    1
    39    17    12   ar
    40    18    19    1
    41    27    28    1
    42    39    40    1
    43    33    36    1
    44    35    37    1
@<TRIPOS>MOLECULE
*****
 40 44 0 0 0
SMALL
GASTEIGER

@<TRIPOS>ATOM
      1 C          63.1450   86.3399   13.9904 C.ar    1  UNL1        0.2218
      2 N          64.0538   86.9081   15.0399 N.ar    1  UNL1       -0.2119
      3 C          64.6161   88.2892   14.8771 C.ar    1  UNL1        0.1066
      4 C          64.2697   89.1019   13.6648 C.ar    1  UNL1        0.0744
      5 C          63.3610   88.5337   12.6155 C.ar    1  UNL1        0.1348
      6 N          62.7986   87.1526   12.7783 N.ar    1  UNL1       -0.1987
      7 C          64.8321   90.4830   13.5020 C.ar    1  UNL1        0.1149
      8 N          65.1498   91.1578   12.2006 N.ar    1  UNL1       -0.2382
      9 C          65.6896   92.5236   12.5063 C.ar    1  UNL1        0.0883
     10 C          65.7054   92.6928   13.9967 C.ar    1  UNL1        0.0560
     11 S          65.1755   91.4316   14.6120 S.2     1  UNL1       -0.0658
     12 C          66.1352   93.5413   11.4986 C.ar    1  UNL1        0.0182
     13 C          66.6956   93.0960   10.1804 C.ar    1  UNL1        0.0015
     14 C          67.1413   94.1138    9.1727 C.ar    1  UNL1        0.0000
     15 C          67.0265   95.5768    9.4831 C.ar    1  UNL1        0.0000
     16 C          66.4661   96.0221   10.8013 C.ar    1  UNL1        0.0000
     17 C          66.0205   95.0043   11.8091 C.ar    1  UNL1        0.0015
     18 N          62.5826   84.9589   14.1532 N.pl3   1  UNL1       -0.2824
     19 H          62.0134   84.7473   14.9281 H       1  UNL1        0.1551
     20 C          62.5589   79.9685   12.7054 C.3     1  UNL1        0.0521
     21 C          62.8757   81.4049   12.4114 C.ar    1  UNL1        0.0606
     22 C          62.5708   82.4637   13.4293 C.ar    1  UNL1        0.0294
     23 C          62.8875   83.9001   13.1353 C.ar    1  UNL1        0.0532
     24 C          63.5092   84.2777   11.8235 C.ar    1  UNL1        0.0353
     25 C          63.8140   83.2190   10.8056 C.ar    1  UNL1        0.0997
     26 N          63.4973   81.7826   11.0996 N.ar    1  UNL1       -0.2481
     27 N          63.0146   89.3464   11.4032 N.pl3   1  UNL1       -0.3172
     28 H          63.3721   90.2583   11.3033 H       1  UNL1        0.1482
     29 C          62.1235   88.7699   10.3432 C.3     1  UNL1        0.0998
     30 C          62.2606   87.4132    9.7183 C.3     1  UNL1        0.0271
     31 C          61.1607   87.2536    8.7109 C.3     1  UNL1        0.0604
     32 C          60.3439   88.5118    8.7133 C.3     1  UNL1        0.1412
     33 O          59.1429   88.7849    7.8571 O.3     1  UNL1       -0.3818
     34 C          60.9390   89.4489    9.7221 C.3     1  UNL1        0.1549
     35 O          60.4375   90.8235   10.0519 O.3     1  UNL1       -0.3803
     36 H          58.9675   88.0166    7.2915 H       1  UNL1        0.2104
     37 H          59.6588   91.0226    9.5088 H       1  UNL1        0.2105
     38 C          60.9199   86.0477    7.8520 C.3     1  UNL1        0.1396
     39 O          59.5378   85.7463    7.3529 O.3     1  UNL1       -0.3819
     40 H          58.9634   85.5282    8.1035 H       1  UNL1        0.2104
@<TRIPOS>BOND
     1    20    21    1
     2    21    22   ar
     3    22    23   ar
     4    23    18    1
     5    18     1    1
     6     1     2   ar
     7     2     3   ar
     8     3     4   ar
     9     4     7    1
    10     7     8   ar
    11     8     9   ar
    12     9    12    1
    13    12    13   ar
    14    13    14   ar
    15    14    15   ar
    16    15    16   ar
    17    16    17   ar
    18     9    10   ar
    19    10    11   ar
    20     4     5   ar
    21     5    27    1
    22    29    27    1
    23    29    30    1
    24    30    31    1
    25    31    38    1
    26    38    39    1
    27    31    32    1
    28    32    33    1
    29    32    34    1
    30    34    35    1
    31     5     6   ar
    32    23    24   ar
    33    24    25   ar
    34    25    26   ar
    35    26    21   ar
    36     6     1   ar
    37    11     7   ar
    38    34    29    1
    39    17    12   ar
    40    18    19    1
    41    27    28    1
    42    39    40    1
    43    33    36    1
    44    35    37    1
@<TRIPOS>MOLECULE
*****
 40 44 0 0 0
SMALL
GASTEIGER

@<TRIPOS>ATOM
      1 C          62.6731   85.8704   12.0204 C.ar    1  UNL1        0.2218
      2 N          62.0603   84.9745   10.9851 N.ar    1  UNL1       -0.2119
      3 C          61.2504   85.5634    9.8683 C.ar    1  UNL1        0.1066
      4 C          61.0534   87.0482    9.7868 C.ar    1  UNL1        0.0744
      5 C          61.6662   87.9440   10.8221 C.ar    1  UNL1        0.1348
      6 N          62.4761   87.3551   11.9390 N.ar    1  UNL1       -0.1987
      7 C          60.2435   87.6371    8.6700 C.ar    1  UNL1        0.1149
      8 N          60.5671   88.8904    7.9120 N.ar    1  UNL1       -0.2382
      9 C          59.4914   89.1040    6.8886 C.ar    1  UNL1        0.0883
     10 C          58.5030   87.9828    7.0142 C.ar    1  UNL1        0.0560
     11 S          58.9678   87.0762    8.1151 S.2     1  UNL1       -0.0658
     12 C          59.4172   90.2395    5.9113 C.ar    1  UNL1        0.0182
     13 C          58.0872   90.8297    5.5470 C.ar    1  UNL1        0.0015
     14 C          58.0130   91.9652    4.5697 C.ar    1  UNL1        0.0000
     15 C          59.2688   92.5105    3.9567 C.ar    1  UNL1        0.0000
     16 C          60.5988   91.9202    4.3211 C.ar    1  UNL1        0.0000
     17 C          60.6730   90.7847    5.2984 C.ar    1  UNL1        0.0015
     18 N          63.4830   85.2815   13.1373 N.pl3   1  UNL1       -0.2824
     19 H          64.0320   85.8659   13.7085 H       1  UNL1        0.1551
     20 C          60.8372   80.9544   14.2669 C.3     1  UNL1        0.0521
     21 C          62.1336   81.6385   13.9485 C.ar    1  UNL1        0.0606
     22 C          62.1601   83.1179   13.7021 C.ar    1  UNL1        0.0294
     23 C          63.4565   83.8020   13.3837 C.ar    1  UNL1        0.0532
     24 C          64.7263   83.0068   13.3117 C.ar    1  UNL1        0.0353
     25 C          64.6997   81.5275   13.5581 C.ar    1  UNL1        0.0997
     26 N          63.4034   80.8433   13.8765 N.ar    1  UNL1       -0.2481
     27 N          61.4691   89.4288   10.7407 N.pl3   1  UNL1       -0.3172
     28 H          60.6311   89.7949   10.3761 H       1  UNL1        0.1482
     29 C          62.5488   90.3558   11.2148 C.3     1  UNL1        0.0998
     30 C          63.3831   91.2532   10.3495 C.3     1  UNL1        0.0271
     31 C          64.3338   92.0002   11.2373 C.3     1  UNL1        0.0604
     32 C          64.0870   91.5645   12.6513 C.3     1  UNL1        0.1412
     33 O          64.8156   92.0584   13.8659 O.3     1  UNL1       -0.3818
     34 C          62.9839   90.5482   12.6373 C.3     1  UNL1        0.1549
     35 O          62.4156   89.8474   13.8356 O.3     1  UNL1       -0.3803
     36 H          65.4813   92.7119   13.6002 H       1  UNL1        0.2104
     37 H          62.8727   90.1518   14.6351 H       1  UNL1        0.2105
     38 C          65.3524   93.0063   10.7897 C.3     1  UNL1        0.1396
     39 O          65.7968   94.0910   11.7257 O.3     1  UNL1       -0.3819
     40 H          65.0521   94.6847   11.9094 H       1  UNL1        0.2104
@<TRIPOS>BOND
     1    20    21    1
     2    21    22   ar
     3    22    23   ar
     4    23    18    1
     5    18     1    1
     6     1     2   ar
     7     2     3   ar
     8     3     4   ar
     9     4     7    1
    10     7     8   ar
    11     8     9   ar
    12     9    12    1
    13    12    13   ar
    14    13    14   ar
    15    14    15   ar
    16    15    16   ar
    17    16    17   ar
    18     9    10   ar
    19    10    11   ar
    20     4     5   ar
    21     5    27    1
    22    29    27    1
    23    29    30    1
    24    30    31    1
    25    31    38    1
    26    38    39    1
    27    31    32    1
    28    32    33    1
    29    32    34    1
    30    34    35    1
    31     5     6   ar
    32    23    24   ar
    33    24    25   ar
    34    25    26   ar
    35    26    21   ar
    36     6     1   ar
    37    11     7   ar
    38    34    29    1
    39    17    12   ar
    40    18    19    1
    41    27    28    1
    42    39    40    1
    43    33    36    1
    44    35    37    1
@<TRIPOS>MOLECULE
*****
 40 44 0 0 0
SMALL
GASTEIGER

@<TRIPOS>ATOM
      1 C          61.2936   88.8972   11.2031 C.ar    1  UNL1        0.2218
      2 N          61.4921   90.2033   10.4925 N.ar    1  UNL1       -0.2119
      3 C          62.6265   91.1041   10.8820 C.ar    1  UNL1        0.1066
      4 C          63.5624   90.6988   11.9820 C.ar    1  UNL1        0.0744
      5 C          63.3638   89.3928   12.6925 C.ar    1  UNL1        0.1348
      6 N          62.2294   88.4920   12.3031 N.ar    1  UNL1       -0.1987
      7 C          64.6968   91.5996   12.3715 C.ar    1  UNL1        0.1149
      8 N          65.5113   91.4992   13.6271 N.ar    1  UNL1       -0.2382
      9 C          66.5338   92.5965   13.6053 C.ar    1  UNL1        0.0883
     10 C          66.3512   93.3751   12.3363 C.ar    1  UNL1        0.0560
     11 S          65.2159   92.7590   11.5737 S.2     1  UNL1       -0.0658
     12 C          67.5588   92.8676   14.6663 C.ar    1  UNL1        0.0182
     13 C          68.1762   91.7279   15.4212 C.ar    1  UNL1        0.0015
     14 C          69.2013   91.9990   16.4822 C.ar    1  UNL1        0.0000
     15 C          69.6089   93.4097   16.7884 C.ar    1  UNL1        0.0000
     16 C          68.9914   94.5494   16.0334 C.ar    1  UNL1        0.0000
     17 C          67.9664   94.2783   14.9724 C.ar    1  UNL1        0.0015
     18 N          60.1591   87.9964   10.8136 N.pl3   1  UNL1       -0.2824
     19 H          59.3611   87.9339   11.3868 H       1  UNL1        0.1551
     20 C          62.8292   84.8739    7.6323 C.3     1  UNL1        0.0521
     21 C          61.5757   85.6297    7.9602 C.ar    1  UNL1        0.0606
     22 C          61.4942   86.4352    9.2229 C.ar    1  UNL1        0.0294
     23 C          60.2406   87.1909    9.5508 C.ar    1  UNL1        0.0532
     24 C          59.0686   87.1411    8.6161 C.ar    1  UNL1        0.0353
     25 C          59.1501   86.3356    7.3534 C.ar    1  UNL1        0.0997
     26 N          60.4037   85.5799    7.0254 N.ar    1  UNL1       -0.2481
     27 N          64.2996   88.9875   13.7926 N.pl3   1  UNL1       -0.3172
     28 H          65.0967   89.5319   13.9862 H       1  UNL1        0.1482
     29 C          64.0210   87.7529   14.5975 C.3     1  UNL1        0.0998
     30 C          64.2744   86.3402   14.1615 C.3     1  UNL1        0.0271
     31 C          63.8500   85.4284   15.2743 C.3     1  UNL1        0.0604
     32 C          63.3342   86.2776   16.3981 C.3     1  UNL1        0.1412
     33 O          62.8056   85.7778   17.7099 O.3     1  UNL1       -0.3818
     34 C          63.4399   87.7142   15.9798 C.3     1  UNL1        0.1549
     35 O          63.0355   88.9032   16.7999 O.3     1  UNL1       -0.3803
     36 H          62.8462   84.8088   17.7269 H       1  UNL1        0.2104
     37 H          62.6896   88.6036   17.6552 H       1  UNL1        0.2105
     38 C          63.9277   83.9304   15.2649 C.3     1  UNL1        0.1396
     39 O          62.7724   83.1163   15.7675 O.3     1  UNL1       -0.3819
     40 H          62.6603   83.2671   16.7191 H       1  UNL1        0.2104
@<TRIPOS>BOND
     1    20    21    1
     2    21    22   ar
     3    22    23   ar
     4    23    18    1
     5    18     1    1
     6     1     2   ar
     7     2     3   ar
     8     3     4   ar
     9     4     7    1
    10     7     8   ar
    11     8     9   ar
    12     9    12    1
    13    12    13   ar
    14    13    14   ar
    15    14    15   ar
    16    15    16   ar
    17    16    17   ar
    18     9    10   ar
    19    10    11   ar
    20     4     5   ar
    21     5    27    1
    22    29    27    1
    23    29    30    1
    24    30    31    1
    25    31    38    1
    26    38    39    1
    27    31    32    1
    28    32    33    1
    29    32    34    1
    30    34    35    1
    31     5     6   ar
    32    23    24   ar
    33    24    25   ar
    34    25    26   ar
    35    26    21   ar
    36     6     1   ar
    37    11     7   ar
    38    34    29    1
    39    17    12   ar
    40    18    19    1
    41    27    28    1
    42    39    40    1
    43    33    36    1
    44    35    37    1
@<TRIPOS>MOLECULE
*****
 40 44 0 0 0
SMALL
GASTEIGER

@<TRIPOS>ATOM
      1 C          59.3907   89.1303    7.3595 C.ar    1  UNL1        0.2218
      2 N          59.8148   87.7922    6.8305 N.ar    1  UNL1       -0.2119
      3 C          60.5948   86.8538    7.7028 C.ar    1  UNL1        0.1066
      4 C          60.9506   87.2535    9.1042 C.ar    1  UNL1        0.0744
      5 C          60.5265   88.5915    9.6331 C.ar    1  UNL1        0.1348
      6 N          59.7465   89.5299    8.7608 N.ar    1  UNL1       -0.1987
      7 C          61.7306   86.3151    9.9766 C.ar    1  UNL1        0.1149
      8 N          61.7882   86.3467   11.4751 N.ar    1  UNL1       -0.2382
      9 C          62.6832   85.2314   11.9283 C.ar    1  UNL1        0.0883
     10 C          63.1786   84.5105   10.7098 C.ar    1  UNL1        0.0560
     11 S          62.5899   85.1802    9.5036 S.2     1  UNL1       -0.0658
     12 C          63.0229   84.8960   13.3503 C.ar    1  UNL1        0.0182
     13 C          62.4482   83.6663   13.9886 C.ar    1  UNL1        0.0015
     14 C          62.7879   83.3309   15.4106 C.ar    1  UNL1        0.0000
     15 C          63.7024   84.2252   16.1942 C.ar    1  UNL1        0.0000
     16 C          64.2771   85.4549   15.5558 C.ar    1  UNL1        0.0000
     17 C          63.9373   85.7903   14.1338 C.ar    1  UNL1        0.0015
     18 N          58.6107   90.0687    6.4871 N.pl3   1  UNL1       -0.2824
     19 H          57.6378   90.1589    6.6076 H       1  UNL1        0.1551
     20 C          62.8774   91.0777    3.6984 C.3     1  UNL1        0.0521
     21 C          61.4465   91.3742    4.0368 C.ar    1  UNL1        0.0606
     22 C          60.7441   90.5732    5.0927 C.ar    1  UNL1        0.0294
     23 C          59.3131   90.8697    5.4311 C.ar    1  UNL1        0.0532
     24 C          58.5847   91.9672    4.7137 C.ar    1  UNL1        0.0353
     25 C          59.2871   92.7682    3.6578 C.ar    1  UNL1        0.0997
     26 N          60.7180   92.4717    3.3194 N.ar    1  UNL1       -0.2481
     27 N          60.8823   88.9911   11.0345 N.pl3   1  UNL1       -0.3172
     28 H          60.3541   88.6509   11.7925 H       1  UNL1        0.1482
     29 C          62.0427   89.9091   11.2809 C.3     1  UNL1        0.0998
     30 C          62.8620   90.5963   10.2291 C.3     1  UNL1        0.0271
     31 C          63.9132   91.4130   10.9205 C.3     1  UNL1        0.0604
     32 C          63.7435   91.2304   12.3997 C.3     1  UNL1        0.1412
     33 O          64.5826   91.8658   13.4685 O.3     1  UNL1       -0.3818
     34 C          62.5874   90.3009   12.6224 C.3     1  UNL1        0.1549
     35 O          62.0675   89.8437   13.9530 O.3     1  UNL1       -0.3803
     36 H          65.2630   92.4217   13.0576 H       1  UNL1        0.2104
     37 H          62.5963   90.2430   14.6614 H       1  UNL1        0.2105
     38 C          64.9518   92.2629   10.2505 C.3     1  UNL1        0.1396
     39 O          66.2169   92.6131   10.9764 O.3     1  UNL1       -0.3819
     40 H          66.0079   93.1801   11.7352 H       1  UNL1        0.2104
@<TRIPOS>BOND
     1    20    21    1
     2    21    22   ar
     3    22    23   ar
     4    23    18    1
     5    18     1    1
     6     1     2   ar
     7     2     3   ar
     8     3     4   ar
     9     4     7    1
    10     7     8   ar
    11     8     9   ar
    12     9    12    1
    13    12    13   ar
    14    13    14   ar
    15    14    15   ar
    16    15    16   ar
    17    16    17   ar
    18     9    10   ar
    19    10    11   ar
    20     4     5   ar
    21     5    27    1
    22    29    27    1
    23    29    30    1
    24    30    31    1
    25    31    38    1
    26    38    39    1
    27    31    32    1
    28    32    33    1
    29    32    34    1
    30    34    35    1
    31     5     6   ar
    32    23    24   ar
    33    24    25   ar
    34    25    26   ar
    35    26    21   ar
    36     6     1   ar
    37    11     7   ar
    38    34    29    1
    39    17    12   ar
    40    18    19    1
    41    27    28    1
    42    39    40    1
    43    33    36    1
    44    35    37    1
@<TRIPOS>MOLECULE
*****
 40 44 0 0 0
SMALL
GASTEIGER

@<TRIPOS>ATOM
      1 C          63.5192   88.8352   13.0219 C.ar    1  UNL1        0.2218
      2 N          63.1256   90.1211   12.3574 N.ar    1  UNL1       -0.2119
      3 C          62.2468   90.0989   11.1419 C.ar    1  UNL1        0.1066
      4 C          61.7616   88.7907   10.5911 C.ar    1  UNL1        0.0744
      5 C          62.1552   87.5049   11.2557 C.ar    1  UNL1        0.1348
      6 N          63.0340   87.5271   12.4711 N.ar    1  UNL1       -0.1987
      7 C          60.8828   88.7684    9.3757 C.ar    1  UNL1        0.1149
      8 N          60.6362   89.9184    8.4448 N.ar    1  UNL1       -0.2382
      9 C          59.6973   89.4530    7.3715 C.ar    1  UNL1        0.0883
     10 C          59.3636   88.0153    7.6391 C.ar    1  UNL1        0.0560
     11 S          60.0963   87.5922    8.8778 S.2     1  UNL1       -0.0658
     12 C          59.1825   90.2801    6.2310 C.ar    1  UNL1        0.0182
     13 C          57.7050   90.4197    6.0129 C.ar    1  UNL1        0.0015
     14 C          57.1902   91.2468    4.8723 C.ar    1  UNL1        0.0000
     15 C          58.1529   91.9342    3.9499 C.ar    1  UNL1        0.0000
     16 C          59.6303   91.7945    4.1680 C.ar    1  UNL1        0.0000
     17 C          60.1451   90.9674    5.3086 C.ar    1  UNL1        0.0015
     18 N          64.3980   88.8575   14.2373 N.pl3   1  UNL1       -0.2824
     19 H          64.7659   88.0169   14.5942 H       1  UNL1        0.1551
     20 C          67.4108   93.0662   14.6952 C.3     1  UNL1        0.0521
     21 C          66.2227   92.2648   15.1379 C.ar    1  UNL1        0.0606
     22 C          65.9044   90.9619   14.4663 C.ar    1  UNL1        0.0294
     23 C          64.7162   90.1605   14.9090 C.ar    1  UNL1        0.0532
     24 C          63.8463   90.6620   16.0233 C.ar    1  UNL1        0.0353
     25 C          64.1646   91.9649   16.6948 C.ar    1  UNL1        0.0997
     26 N          65.3527   92.7663   16.2521 N.ar    1  UNL1       -0.2481
     27 N          61.6700   86.1967   10.7048 N.pl3   1  UNL1       -0.3172
     28 H          60.8317   86.1600   10.1899 H       1  UNL1        0.1482
     29 C          62.4621   84.9445   10.9385 C.3     1  UNL1        0.0998
     30 C          62.5959   84.2164   12.2431 C.3     1  UNL1        0.0271
     31 C          63.4759   83.0225   12.0196 C.3     1  UNL1        0.0604
     32 C          63.8861   83.0127   10.5767 C.3     1  UNL1        0.1412
     33 O          64.7680   81.9939    9.9177 O.3     1  UNL1       -0.3818
     34 C          63.2595   84.2006    9.9086 C.3     1  UNL1        0.1549
     35 O          63.4048   84.5782    8.4642 O.3     1  UNL1       -0.3803
     36 H          65.0396   81.3304   10.5710 H       1  UNL1        0.2104
     37 H          63.9727   83.9316    8.0166 H       1  UNL1        0.2105
     38 C          63.8756   82.0152   13.0567 C.3     1  UNL1        0.1396
     39 O          63.7566   82.3513   14.5137 O.3     1  UNL1       -0.3819
     40 H          64.3765   83.0645   14.7327 H       1  UNL1        0.2104
@<TRIPOS>BOND
     1    20    21    1
     2    21    22   ar
     3    22    23   ar
     4    23    18    1
     5    18     1    1
     6     1     2   ar
     7     2     3   ar
     8     3     4   ar
     9     4     7    1
    10     7     8   ar
    11     8     9   ar
    12     9    12    1
    13    12    13   ar
    14    13    14   ar
    15    14    15   ar
    16    15    16   ar
    17    16    17   ar
    18     9    10   ar
    19    10    11   ar
    20     4     5   ar
    21     5    27    1
    22    29    27    1
    23    29    30    1
    24    30    31    1
    25    31    38    1
    26    38    39    1
    27    31    32    1
    28    32    33    1
    29    32    34    1
    30    34    35    1
    31     5     6   ar
    32    23    24   ar
    33    24    25   ar
    34    25    26   ar
    35    26    21   ar
    36     6     1   ar
    37    11     7   ar
    38    34    29    1
    39    17    12   ar
    40    18    19    1
    41    27    28    1
    42    39    40    1
    43    33    36    1
    44    35    37    1
@<TRIPOS>MOLECULE
*****
 40 44 0 0 0
SMALL
GASTEIGER

@<TRIPOS>ATOM
      1 C          63.9849   90.4904   14.4545 C.ar    1  UNL1        0.2218
      2 N          62.9095   91.1855   13.6730 N.ar    1  UNL1       -0.2119
      3 C          62.1772   90.4520   12.5887 C.ar    1  UNL1        0.1066
      4 C          62.5202   89.0235   12.2859 C.ar    1  UNL1        0.0744
      5 C          63.5955   88.3285   13.0673 C.ar    1  UNL1        0.1348
      6 N          64.3278   89.0620   14.1516 N.ar    1  UNL1       -0.1987
      7 C          61.7879   88.2900   11.2016 C.ar    1  UNL1        0.1149
      8 N          62.4053   87.3850   10.1770 N.ar    1  UNL1       -0.2382
      9 C          61.3086   86.8684    9.2937 C.ar    1  UNL1        0.0883
     10 C          60.0132   87.4541    9.7724 C.ar    1  UNL1        0.0560
     11 S          60.3095   88.3326   10.9515 S.2     1  UNL1       -0.0658
     12 C          61.4775   85.9308    8.1351 C.ar    1  UNL1        0.0182
     13 C          60.2990   85.5809    7.2756 C.ar    1  UNL1        0.0015
     14 C          60.4680   84.6432    6.1170 C.ar    1  UNL1        0.0000
     15 C          61.8153   84.0555    5.8180 C.ar    1  UNL1        0.0000
     16 C          62.9937   84.4055    6.6776 C.ar    1  UNL1        0.0000
     17 C          62.8247   85.3431    7.8362 C.ar    1  UNL1        0.0015
     18 N          64.7172   91.2239   15.5388 N.pl3   1  UNL1       -0.2824
     19 H          64.3080   91.3237   16.4286 H       1  UNL1        0.1551
     20 C          68.8802   91.6899   12.4642 C.3     1  UNL1        0.0521
     21 C          68.1545   92.0383   13.7300 C.ar    1  UNL1        0.0606
     22 C          66.7988   91.4569   14.0015 C.ar    1  UNL1        0.0294
     23 C          66.0731   91.8054   15.2672 C.ar    1  UNL1        0.0532
     24 C          66.7032   92.7352   16.2614 C.ar    1  UNL1        0.0353
     25 C          68.0590   93.3166   15.9898 C.ar    1  UNL1        0.0997
     26 N          68.7846   92.9682   14.7241 N.ar    1  UNL1       -0.2481
     27 N          63.9385   86.8999   12.7645 N.pl3   1  UNL1       -0.3172
     28 H          64.4992   86.6829   11.9849 H       1  UNL1        0.1482
     29 C          63.4272   85.8020   13.6494 C.3     1  UNL1        0.0998
     30 C          62.9638   84.4489   13.1974 C.3     1  UNL1        0.0271
     31 C          62.5397   83.6750   14.4103 C.3     1  UNL1        0.0604
     32 C          62.7410   84.5500   15.6121 C.3     1  UNL1        0.1412
     33 O          62.4456   84.1760   17.0344 O.3     1  UNL1       -0.3818
     34 C          63.2895   85.8645   15.1417 C.3     1  UNL1        0.1549
     35 O          63.6388   87.0358   16.0112 O.3     1  UNL1       -0.3803
     36 H          62.0994   83.2704   17.0654 H       1  UNL1        0.2104
     37 H          63.4556   86.8165   16.9381 H       1  UNL1        0.2105
     38 C          62.0078   82.2726   14.4200 C.3     1  UNL1        0.1396
     39 O          62.9557   81.1106   14.3830 O.3     1  UNL1       -0.3819
     40 H          63.4227   81.1012   13.5329 H       1  UNL1        0.2104
@<TRIPOS>BOND
     1    20    21    1
     2    21    22   ar
     3    22    23   ar
     4    23    18    1
     5    18     1    1
     6     1     2   ar
     7     2     3   ar
     8     3     4   ar
     9     4     7    1
    10     7     8   ar
    11     8     9   ar
    12     9    12    1
    13    12    13   ar
    14    13    14   ar
    15    14    15   ar
    16    15    16   ar
    17    16    17   ar
    18     9    10   ar
    19    10    11   ar
    20     4     5   ar
    21     5    27    1
    22    29    27    1
    23    29    30    1
    24    30    31    1
    25    31    38    1
    26    38    39    1
    27    31    32    1
    28    32    33    1
    29    32    34    1
    30    34    35    1
    31     5     6   ar
    32    23    24   ar
    33    24    25   ar
    34    25    26   ar
    35    26    21   ar
    36     6     1   ar
    37    11     7   ar
    38    34    29    1
    39    17    12   ar
    40    18    19    1
    41    27    28    1
    42    39    40    1
    43    33    36    1
    44    35    37    1
@<TRIPOS>MOLECULE
*****
 40 44 0 0 0
SMALL
GASTEIGER

@<TRIPOS>ATOM
      1 C          60.9706   86.7150   10.4943 C.ar    1  UNL1        0.2218
      2 N          60.2111   86.1789    9.3170 N.ar    1  UNL1       -0.2119
      3 C          59.8445   87.0899    8.1831 C.ar    1  UNL1        0.1066
      4 C          60.2374   88.5369    8.2265 C.ar    1  UNL1        0.0744
      5 C          60.9969   89.0729    9.4037 C.ar    1  UNL1        0.1348
      6 N          61.3635   88.1619   10.5376 N.ar    1  UNL1       -0.1987
      7 C          59.8708   89.4479    7.0926 C.ar    1  UNL1        0.1149
      8 N          60.8317   90.1460    6.1764 N.ar    1  UNL1       -0.2382
      9 C          60.0338   90.9503    5.1933 C.ar    1  UNL1        0.0883
     10 C          58.5797   90.7493    5.5020 C.ar    1  UNL1        0.0560
     11 S          58.4790   89.8208    6.6758 S.2     1  UNL1       -0.0658
     12 C          60.5919   91.8054    4.0946 C.ar    1  UNL1        0.0182
     13 C          61.9908   91.5770    3.6037 C.ar    1  UNL1        0.0015
     14 C          62.5489   92.4321    2.5049 C.ar    1  UNL1        0.0000
     15 C          61.7082   93.5155    1.8972 C.ar    1  UNL1        0.0000
     16 C          60.3094   93.7439    2.3881 C.ar    1  UNL1        0.0000
     17 C          59.7512   92.8888    3.4868 C.ar    1  UNL1        0.0015
     18 N          61.3372   85.8040   11.6282 N.pl3   1  UNL1       -0.2824
     19 H          60.9232   85.9278   12.5127 H       1  UNL1        0.1551
     20 C          63.9108   81.6546   13.4056 C.3     1  UNL1        0.0521
     21 C          63.6214   82.6296   12.3030 C.ar    1  UNL1        0.0606
     22 C          62.6240   83.7293   12.5169 C.ar    1  UNL1        0.0294
     23 C          62.3347   84.7042   11.4143 C.ar    1  UNL1        0.0532
     24 C          63.0428   84.5795   10.0979 C.ar    1  UNL1        0.0353
     25 C          64.0402   83.4798    9.8840 C.ar    1  UNL1        0.0997
     26 N          64.3295   82.5048   10.9866 N.ar    1  UNL1       -0.2481
     27 N          61.3898   90.5199    9.4471 N.pl3   1  UNL1       -0.3172
     28 H          60.9381   91.1704    8.8622 H       1  UNL1        0.1482
     29 C          62.4708   90.9759   10.3816 C.3     1  UNL1        0.0998
     30 C          63.7175   91.7146    9.9942 C.3     1  UNL1        0.0271
     31 C          64.5122   91.9684   11.2408 C.3     1  UNL1        0.0604
     32 C          63.7566   91.3865   12.3987 C.3     1  UNL1        0.1412
     33 O          64.1872   91.4133   13.8353 O.3     1  UNL1       -0.3818
     34 C          62.4950   90.7731   11.8676 C.3     1  UNL1        0.1549
     35 O          61.4424   90.0788   12.6800 O.3     1  UNL1       -0.3803
     36 H          65.0400   91.8695   13.9088 H       1  UNL1        0.2104
     37 H          61.7001   90.0839   13.6152 H       1  UNL1        0.2105
     38 C          65.8309   92.6793   11.3163 C.3     1  UNL1        0.1396
     39 O          66.5291   92.8266   12.6358 O.3     1  UNL1       -0.3819
     40 H          66.0034   93.3974   13.2178 H       1  UNL1        0.2104
@<TRIPOS>BOND
     1    20    21    1
     2    21    22   ar
     3    22    23   ar
     4    23    18    1
     5    18     1    1
     6     1     2   ar
     7     2     3   ar
     8     3     4   ar
     9     4     7    1
    10     7     8   ar
    11     8     9   ar
    12     9    12    1
    13    12    13   ar
    14    13    14   ar
    15    14    15   ar
    16    15    16   ar
    17    16    17   ar
    18     9    10   ar
    19    10    11   ar
    20     4     5   ar
    21     5    27    1
    22    29    27    1
    23    29    30    1
    24    30    31    1
    25    31    38    1
    26    38    39    1
    27    31    32    1
    28    32    33    1
    29    32    34    1
    30    34    35    1
    31     5     6   ar
    32    23    24   ar
    33    24    25   ar
    34    25    26   ar
    35    26    21   ar
    36     6     1   ar
    37    11     7   ar
    38    34    29    1
    39    17    12   ar
    40    18    19    1
    41    27    28    1
    42    39    40    1
    43    33    36    1
    44    35    37    1
