@<TRIPOS>MOLECULE
*****
 37 41 0 0 0
SMALL
GASTEIGER

@<TRIPOS>ATOM
      1 C          61.0789   88.0860    9.8449 C.3     0  UNK0        0.2246
      2 C          60.9969   86.6319    9.4858 C.2     0  UNK0        0.0436
      3 C          60.0281   86.1720    8.4369 C.2     0  UNK0        0.0288
      4 C          59.1415   87.1661    7.7472 C.2     0  UNK0        0.0896
      5 N          59.2236   88.6202    8.1063 N.am    0  UNK0       -0.1770
      6 C          60.1923   89.0800    9.1552 C.2     0  UNK0        0.2627
      7 O          60.2744   90.5341    9.5143 O.2     0  UNK0       -0.2719
      8 C          64.0087   87.0656   14.8907 C.3     0  UNK0        0.0312
      9 C          64.1929   88.3588   14.1534 C.2     0  UNK0        0.0124
     10 C          65.1239   89.4038   14.6930 C.2     0  UNK0       -0.0038
     11 C          65.3082   90.6969   13.9558 C.2     0  UNK0        0.0030
     12 C          64.5614   90.9453   12.6788 C.2     0  UNK0        0.0468
     13 C          63.6304   89.9003   12.1391 C.2     0  UNK0        0.2234
     14 N          62.7661   89.8626   10.9137 N.2     0  UNK0       -0.0378
     15 C          62.0476   88.5460   10.8937 C.2     0  UNK0        0.3605
     16 N          62.4679   87.7700   12.1067 N.2     0  UNK0       -0.0547
     17 C          63.4461   88.6071   12.8764 C.3     0  UNK0        0.2975
     18 C          66.2393   91.7419   14.4955 C.ar    0  UNK0        0.0002
     19 C          66.1585   93.1518   13.9897 C.ar    0  UNK0        0.0023
     20 C          67.0895   94.1967   14.5293 C.ar    0  UNK0        0.0296
     21 C          68.1013   93.8319   15.5748 C.ar    0  UNK0        0.1401
     22 F          69.0323   94.8767   16.1145 F       0  UNK0       -0.2042
     23 C          68.1821   92.4220   16.0807 C.ar    0  UNK0        0.0296
     24 C          67.2511   91.3771   15.5410 C.ar    0  UNK0        0.0023
     25 N          61.8834   85.6378   10.1754 N.pl3   1  PHE1       -0.3342
     26 H          61.7521   85.4410   11.1310 H       1  PHE1        0.1466
     27 CA         62.9700   84.9435    9.4091 C.3     1  PHE1        0.1029
     28 C          63.2475   85.3281    7.9860 C.3     1  PHE1        0.1568
     29 O          62.5757   84.5913    6.8654 O.3     1  PHE1       -0.3802
     30 H          62.8879   83.6730    6.8492 H       1  PHE1        0.2105
     31 CB         63.7792   83.8647   10.0658 C.3     1  PHE1        0.0484
     32 CG         63.3833   83.3476   11.4171 C.ar    1  PHE1       -0.0204
     33 CD1        62.7004   82.0179   11.5408 C.ar    1  PHE1       -0.0042
     34 CE1        62.3045   81.5008   12.8920 C.ar    1  PHE1       -0.0003
     35 CZ         62.5915   82.3135   14.1197 C.ar    1  PHE1       -0.0000
     36 CE2        63.2744   83.6432   13.9960 C.ar    1  PHE1       -0.0003
     37 CD2        63.6703   84.1603   12.6448 C.ar    1  PHE1       -0.0042
@<TRIPOS>BOND
     1     8     9    1
     2     9    10    2
     3    10    11    1
     4    11    18    1
     5    18    19   ar
     6    19    20   ar
     7    20    21   ar
     8    21    22    1
     9    21    23   ar
    10    23    24   ar
    11    11    12    2
    12    12    13    1
    13    13    14    2
    14    14    15    1
    15    15     1    1
    16     1     2    1
    17     2    25    1
    18    25    27    1
    19    27    28    1
    20    28    29    1
    21    27    31    1
    22    31    32    1
    23    32    33   ar
    24    33    34   ar
    25    34    35   ar
    26    35    36   ar
    27    36    37   ar
    28     2     3    2
    29     3     4    1
    30     4     5    2
    31     5     6    1
    32     6     7    2
    33    15    16    2
    34    16    17    1
    35    17     9    1
    36    24    18   ar
    37    17    13    1
    38     6     1    1
    39    37    32   ar
    40    25    26    1
    41    29    30    1
@<TRIPOS>MOLECULE
*****
 37 41 0 0 0
SMALL
GASTEIGER

@<TRIPOS>ATOM
      1 C          64.4205   90.5243   14.7867 C.3     0  UNK0        0.2246
      2 C          65.3926   91.4917   14.1792 C.2     0  UNK0        0.0436
      3 C          65.8098   92.7142   14.9418 C.2     0  UNK0        0.0288
      4 C          65.2550   92.9692   16.3118 C.2     0  UNK0        0.0896
      5 N          64.2829   92.0019   16.9194 N.am    0  UNK0       -0.1770
      6 C          63.8656   90.7794   16.1568 C.2     0  UNK0        0.2627
      7 O          62.8935   89.8120   16.7643 O.2     0  UNK0       -0.2719
      8 C          61.7794   88.1002   10.0715 C.3     0  UNK0        0.0312
      9 C          62.3895   87.2311   11.1310 C.2     0  UNK0        0.0124
     10 C          62.3331   85.7379   11.0003 C.2     0  UNK0       -0.0038
     11 C          62.9432   84.8688   12.0597 C.2     0  UNK0        0.0030
     12 C          63.6097   85.4929   13.2499 C.2     0  UNK0        0.0468
     13 C          63.6660   86.9861   13.3805 C.2     0  UNK0        0.2234
     14 N          64.2514   87.8802   14.4331 N.2     0  UNK0       -0.0378
     15 C          64.0032   89.3018   14.0242 C.2     0  UNK0        0.3605
     16 N          63.2643   89.2864   12.7189 N.2     0  UNK0       -0.0547
     17 C          63.0559   87.8553   12.3211 C.3     0  UNK0        0.2975
     18 C          62.8868   83.3755   11.9291 C.ar    0  UNK0        0.0002
     19 C          63.3331   82.7165   10.6576 C.ar    0  UNK0        0.0023
     20 C          63.2768   81.2233   10.5270 C.ar    0  UNK0        0.0296
     21 C          62.7741   80.3891   11.6678 C.ar    0  UNK0        0.1401
     22 F          62.7177   78.8959   11.5372 F       0  UNK0       -0.2042
     23 C          62.3278   81.0481   12.9392 C.ar    0  UNK0        0.0296
     24 C          62.3842   82.5413   13.0699 C.ar    0  UNK0        0.0023
     25 N          65.9474   91.2367   12.8091 N.pl3   1  PHE1       -0.3342
     26 H          66.3866   90.3789   12.6077 H       1  PHE1        0.1466
     27 CA         65.8333   92.2886   11.7459 C.3     1  PHE1        0.1029
     28 C          64.6080   92.3530   10.8831 C.3     1  PHE1        0.1568
     29 O          63.7854   91.1196   10.6553 O.3     1  PHE1       -0.3802
     30 H          64.3046   90.4731   10.1519 H       1  PHE1        0.2105
     31 CB         66.9445   93.2761   11.5455 C.3     1  PHE1        0.0484
     32 CG         66.7676   94.4209   10.5926 C.ar    1  PHE1       -0.0204
     33 CD1        66.0475   95.6603   11.0346 C.ar    1  PHE1       -0.0042
     34 CE1        65.8707   96.8051   10.0817 C.ar    1  PHE1       -0.0003
     35 CZ         66.4139   96.7106    8.6867 C.ar    1  PHE1       -0.0000
     36 CE2        67.1340   95.4712    8.2447 C.ar    1  PHE1       -0.0003
     37 CD2        67.3108   94.3264    9.1976 C.ar    1  PHE1       -0.0042
@<TRIPOS>BOND
     1     8     9    1
     2     9    10    2
     3    10    11    1
     4    11    18    1
     5    18    19   ar
     6    19    20   ar
     7    20    21   ar
     8    21    22    1
     9    21    23   ar
    10    23    24   ar
    11    11    12    2
    12    12    13    1
    13    13    14    2
    14    14    15    1
    15    15     1    1
    16     1     2    1
    17     2    25    1
    18    25    27    1
    19    27    28    1
    20    28    29    1
    21    27    31    1
    22    31    32    1
    23    32    33   ar
    24    33    34   ar
    25    34    35   ar
    26    35    36   ar
    27    36    37   ar
    28     2     3    2
    29     3     4    1
    30     4     5    2
    31     5     6    1
    32     6     7    2
    33    15    16    2
    34    16    17    1
    35    17     9    1
    36    24    18   ar
    37    17    13    1
    38     6     1    1
    39    37    32   ar
    40    25    26    1
    41    29    30    1
@<TRIPOS>MOLECULE
*****
 37 41 0 0 0
SMALL
GASTEIGER

@<TRIPOS>ATOM
      1 C          63.8446   90.8316   14.6203 C.3     0  UNK0        0.2246
      2 C          64.9569   91.7663   14.2476 C.2     0  UNK0        0.0436
      3 C          65.6784   92.5364   15.3137 C.2     0  UNK0        0.0288
      4 C          65.2875   92.3718   16.7525 C.2     0  UNK0        0.0896
      5 N          64.1752   91.4370   17.1252 N.am    0  UNK0       -0.1770
      6 C          63.4537   90.6669   16.0591 C.2     0  UNK0        0.2627
      7 O          62.3414   89.7322   16.4319 O.2     0  UNK0       -0.2719
      8 C          58.7695   89.2805   11.9893 C.3     0  UNK0        0.0312
      9 C          60.0787   88.7451   11.4900 C.2     0  UNK0        0.0124
     10 C          60.1085   87.8104   10.3171 C.2     0  UNK0       -0.0038
     11 C          61.4176   87.2750    9.8179 C.2     0  UNK0        0.0030
     12 C          62.6971   87.6742   10.4914 C.2     0  UNK0        0.0468
     13 C          62.6674   88.6088   11.6642 C.2     0  UNK0        0.2234
     14 N          63.7581   89.1757   12.5238 N.2     0  UNK0       -0.0378
     15 C          63.1231   90.0615   13.5543 C.2     0  UNK0        0.3605
     16 N          61.6398   90.0421   13.3317 N.2     0  UNK0       -0.0547
     17 C          61.3581   89.1442   12.1635 C.3     0  UNK0        0.2975
     18 C          61.4474   86.3403    8.6450 C.ar    0  UNK0        0.0002
     19 C          60.1997   86.0957    7.8491 C.ar    0  UNK0        0.0023
     20 C          60.2294   85.1610    6.6762 C.ar    0  UNK0        0.0296
     21 C          61.5068   84.4711    6.2993 C.ar    0  UNK0        0.1401
     22 F          61.5366   83.5364    5.1265 F       0  UNK0       -0.2042
     23 C          62.7545   84.7157    7.0951 C.ar    0  UNK0        0.0296
     24 C          62.7248   85.6504    8.2680 C.ar    0  UNK0        0.0023
     25 N          65.3478   91.9311   12.8088 N.pl3   1  PHE1       -0.3342
     26 H          64.8101   91.5077   12.1011 H       1  PHE1        0.1466
     27 CA         66.5579   92.7408   12.4483 C.3     1  PHE1        0.1029
     28 C          67.8908   92.0701   12.2952 C.3     1  PHE1        0.1568
     29 O          68.8202   91.9719   13.4685 O.3     1  PHE1       -0.3802
     30 H          69.1139   92.8604   13.7236 H       1  PHE1        0.2105
     31 CB         66.4350   94.2213   12.2409 C.3     1  PHE1        0.0484
     32 CG         66.5427   94.7967   10.8599 C.ar    1  PHE1       -0.0204
     33 CD1        67.2651   94.0387    9.7858 C.ar    1  PHE1       -0.0042
     34 CE1        67.3728   94.6141    8.4048 C.ar    1  PHE1       -0.0003
     35 CZ         66.7581   95.9474    8.0977 C.ar    1  PHE1       -0.0000
     36 CE2        66.0357   96.7054    9.1717 C.ar    1  PHE1       -0.0003
     37 CD2        65.9280   96.1300   10.5528 C.ar    1  PHE1       -0.0042
@<TRIPOS>BOND
     1     8     9    1
     2     9    10    2
     3    10    11    1
     4    11    18    1
     5    18    19   ar
     6    19    20   ar
     7    20    21   ar
     8    21    22    1
     9    21    23   ar
    10    23    24   ar
    11    11    12    2
    12    12    13    1
    13    13    14    2
    14    14    15    1
    15    15     1    1
    16     1     2    1
    17     2    25    1
    18    25    27    1
    19    27    28    1
    20    28    29    1
    21    27    31    1
    22    31    32    1
    23    32    33   ar
    24    33    34   ar
    25    34    35   ar
    26    35    36   ar
    27    36    37   ar
    28     2     3    2
    29     3     4    1
    30     4     5    2
    31     5     6    1
    32     6     7    2
    33    15    16    2
    34    16    17    1
    35    17     9    1
    36    24    18   ar
    37    17    13    1
    38     6     1    1
    39    37    32   ar
    40    25    26    1
    41    29    30    1
@<TRIPOS>MOLECULE
*****
 37 41 0 0 0
SMALL
GASTEIGER

@<TRIPOS>ATOM
      1 C          64.0295   91.0167   14.3396 C.3     0  UNK0        0.2246
      2 C          63.8316   90.7860   15.8085 C.2     0  UNK0        0.0436
      3 C          64.5978   91.6035   16.8059 C.2     0  UNK0        0.0288
      4 C          65.5617   92.6516   16.3345 C.2     0  UNK0        0.0896
      5 N          65.7595   92.8823   14.8656 N.am    0  UNK0       -0.1770
      6 C          64.9934   92.0649   13.8682 C.2     0  UNK0        0.2627
      7 O          65.1913   92.2956   12.3993 O.2     0  UNK0       -0.2719
      8 C          58.8423   89.1585   12.1659 C.3     0  UNK0        0.0312
      9 C          60.1317   88.6961   11.5546 C.2     0  UNK0        0.0124
     10 C          60.1129   87.7569   10.3852 C.2     0  UNK0       -0.0038
     11 C          61.4022   87.2945    9.7739 C.2     0  UNK0        0.0030
     12 C          62.7104   87.7711   10.3321 C.2     0  UNK0        0.0468
     13 C          62.7292   88.7102   11.5016 C.2     0  UNK0        0.2234
     14 N          63.8562   89.3447   12.2613 N.2     0  UNK0       -0.0378
     15 C          63.2634   90.1993   13.3421 C.2     0  UNK0        0.3605
     16 N          61.7700   90.0930   13.2504 N.2     0  UNK0       -0.0547
     17 C          61.4398   89.1727   12.1128 C.3     0  UNK0        0.2975
     18 C          61.3835   86.3553    8.6044 C.ar    0  UNK0        0.0002
     19 C          62.6337   85.6285    8.2060 C.ar    0  UNK0        0.0023
     20 C          62.6150   84.6894    7.0365 C.ar    0  UNK0        0.0296
     21 C          61.3460   84.4770    6.2655 C.ar    0  UNK0        0.1401
     22 F          61.3271   83.5379    5.0960 F       0  UNK0       -0.2042
     23 C          60.0957   85.2037    6.6639 C.ar    0  UNK0        0.0296
     24 C          60.1145   86.1429    7.8334 C.ar    0  UNK0        0.0023
     25 N          62.8677   89.7379   16.2800 N.pl3   1  PHE1       -0.3342
     26 H          61.9485   89.9898   16.5266 H       1  PHE1        0.1466
     27 CA         63.3043   88.3061   16.3756 C.3     1  PHE1        0.1029
     28 C          62.7787   87.4337   17.4769 C.3     1  PHE1        0.1568
     29 O          61.6059   86.5331   17.2254 O.3     1  PHE1       -0.3802
     30 H          60.8168   87.0702   17.0532 H       1  PHE1        0.2105
     31 CB         64.2664   87.7465   15.3700 C.3     1  PHE1        0.0484
     32 CG         64.0778   86.3538   14.8460 C.ar    1  PHE1       -0.0204
     33 CD1        64.4539   85.1757   15.6948 C.ar    1  PHE1       -0.0042
     34 CE1        64.2653   83.7829   15.1707 C.ar    1  PHE1       -0.0003
     35 CZ         63.7008   83.5682   13.7977 C.ar    1  PHE1       -0.0000
     36 CE2        63.3247   84.7463   12.9489 C.ar    1  PHE1       -0.0003
     37 CD2        63.5133   86.1391   13.4729 C.ar    1  PHE1       -0.0042
@<TRIPOS>BOND
     1     8     9    1
     2     9    10    2
     3    10    11    1
     4    11    18    1
     5    18    19   ar
     6    19    20   ar
     7    20    21   ar
     8    21    22    1
     9    21    23   ar
    10    23    24   ar
    11    11    12    2
    12    12    13    1
    13    13    14    2
    14    14    15    1
    15    15     1    1
    16     1     2    1
    17     2    25    1
    18    25    27    1
    19    27    28    1
    20    28    29    1
    21    27    31    1
    22    31    32    1
    23    32    33   ar
    24    33    34   ar
    25    34    35   ar
    26    35    36   ar
    27    36    37   ar
    28     2     3    2
    29     3     4    1
    30     4     5    2
    31     5     6    1
    32     6     7    2
    33    15    16    2
    34    16    17    1
    35    17     9    1
    36    24    18   ar
    37    17    13    1
    38     6     1    1
    39    37    32   ar
    40    25    26    1
    41    29    30    1
@<TRIPOS>MOLECULE
*****
 37 41 0 0 0
SMALL
GASTEIGER

@<TRIPOS>ATOM
      1 C          63.0308   84.4662   13.6610 C.3     0  UNK0        0.2246
      2 C          62.4635   83.8252   12.4292 C.2     0  UNK0        0.0436
      3 C          62.0540   82.3824   12.4554 C.2     0  UNK0        0.0288
      4 C          62.2118   81.5805   13.7132 C.2     0  UNK0        0.0896
      5 N          62.7791   82.2215   14.9450 N.am    0  UNK0       -0.1770
      6 C          63.1886   83.6644   14.9188 C.2     0  UNK0        0.2627
      7 O          63.7559   84.3053   16.1506 O.2     0  UNK0       -0.2719
      8 C          62.3682   89.9242   11.4575 C.3     0  UNK0        0.0312
      9 C          63.3965   89.6514   12.5149 C.2     0  UNK0        0.0124
     10 C          64.2653   90.7645   13.0210 C.2     0  UNK0       -0.0038
     11 C          65.2936   90.4918   14.0784 C.2     0  UNK0        0.0030
     12 C          65.4532   89.1059   14.6297 C.2     0  UNK0        0.0468
     13 C          64.5845   87.9928   14.1236 C.2     0  UNK0        0.2234
     14 N          64.5129   86.5364   14.4751 N.2     0  UNK0       -0.0378
     15 C          63.4402   85.9090   13.6350 C.2     0  UNK0        0.3605
     16 N          62.8489   86.9777   12.7642 N.2     0  UNK0       -0.0547
     17 C          63.5561   88.2656   13.0662 C.3     0  UNK0        0.2975
     18 C          66.1624   91.6050   14.5845 C.ar    0  UNK0        0.0002
     19 C          66.0490   92.9760   13.9867 C.ar    0  UNK0        0.0023
     20 C          66.9178   94.0892   14.4928 C.ar    0  UNK0        0.0296
     21 C          67.9000   93.8313   15.5968 C.ar    0  UNK0        0.1401
     22 F          68.7688   94.9443   16.1029 F       0  UNK0       -0.2042
     23 C          68.0134   92.4602   16.1946 C.ar    0  UNK0        0.0296
     24 C          67.1446   91.3471   15.6885 C.ar    0  UNK0        0.0023
     25 N          62.3056   84.6269   11.1714 N.pl3   1  PHE1       -0.3342
     26 H          61.6299   85.3414   11.1246 H       1  PHE1        0.1466
     27 CA         63.1772   84.3401    9.9848 C.3     1  PHE1        0.1029
     28 C          64.1553   83.2037   10.0297 C.3     1  PHE1        0.1568
     29 O          65.1696   83.1304   11.1324 O.3     1  PHE1       -0.3802
     30 H          65.7878   83.8736   11.0529 H       1  PHE1        0.2105
     31 CB         63.0707   85.1897    8.7531 C.3     1  PHE1        0.0484
     32 CG         61.8531   86.0367    8.5293 C.ar    1  PHE1       -0.0204
     33 CD1        60.7449   85.5393    7.6493 C.ar    1  PHE1       -0.0042
     34 CE1        59.5273   86.3863    7.4255 C.ar    1  PHE1       -0.0003
     35 CZ         59.4179   87.7308    8.0816 C.ar    1  PHE1       -0.0000
     36 CE2        60.5262   88.2281    8.9616 C.ar    1  PHE1       -0.0003
     37 CD2        61.7437   87.3811    9.1855 C.ar    1  PHE1       -0.0042
@<TRIPOS>BOND
     1     8     9    1
     2     9    10    2
     3    10    11    1
     4    11    18    1
     5    18    19   ar
     6    19    20   ar
     7    20    21   ar
     8    21    22    1
     9    21    23   ar
    10    23    24   ar
    11    11    12    2
    12    12    13    1
    13    13    14    2
    14    14    15    1
    15    15     1    1
    16     1     2    1
    17     2    25    1
    18    25    27    1
    19    27    28    1
    20    28    29    1
    21    27    31    1
    22    31    32    1
    23    32    33   ar
    24    33    34   ar
    25    34    35   ar
    26    35    36   ar
    27    36    37   ar
    28     2     3    2
    29     3     4    1
    30     4     5    2
    31     5     6    1
    32     6     7    2
    33    15    16    2
    34    16    17    1
    35    17     9    1
    36    24    18   ar
    37    17    13    1
    38     6     1    1
    39    37    32   ar
    40    25    26    1
    41    29    30    1
@<TRIPOS>MOLECULE
*****
 37 41 0 0 0
SMALL
GASTEIGER

@<TRIPOS>ATOM
      1 C          63.0050   83.3975   13.6167 C.3     0  UNK0        0.2246
      2 C          63.3171   82.9275   12.2269 C.2     0  UNK0        0.0436
      3 C          63.0346   81.5075   11.8343 C.2     0  UNK0        0.0288
      4 C          62.4402   80.5577   12.8315 C.2     0  UNK0        0.0896
      5 N          62.1282   81.0277   14.2213 N.am    0  UNK0       -0.1770
      6 C          62.4106   82.4476   14.6139 C.2     0  UNK0        0.2627
      7 O          62.0985   82.9176   16.0038 O.2     0  UNK0       -0.2719
      8 C          62.8067   87.7111   17.6711 C.3     0  UNK0        0.0312
      9 C          63.3866   87.9715   16.3125 C.2     0  UNK0        0.0124
     10 C          63.9211   89.3313   15.9732 C.2     0  UNK0       -0.0038
     11 C          64.5010   89.5918   14.6147 C.2     0  UNK0        0.0030
     12 C          64.5464   88.4923   13.5952 C.2     0  UNK0        0.0468
     13 C          64.0119   87.1325   13.9344 C.2     0  UNK0        0.2234
     14 N          63.9226   85.8626   13.1411 N.2     0  UNK0       -0.0378
     15 C          63.2874   84.8174   14.0094 C.2     0  UNK0        0.3605
     16 N          62.9842   85.4412   15.3394 N.2     0  UNK0       -0.0547
     17 C          63.4320   86.8721   15.2931 C.3     0  UNK0        0.2975
     18 C          65.0355   90.9517   14.2754 C.ar    0  UNK0        0.0002
     19 C          64.8922   91.4877   12.8818 C.ar    0  UNK0        0.0023
     20 C          65.4267   92.8475   12.5425 C.ar    0  UNK0        0.0296
     21 C          66.1046   93.6714   13.5969 C.ar    0  UNK0        0.1401
     22 F          66.6391   95.0312   13.2578 F       0  UNK0       -0.2042
     23 C          66.2479   93.1354   14.9906 C.ar    0  UNK0        0.0296
     24 C          65.7134   91.7756   15.3298 C.ar    0  UNK0        0.0023
     25 N          63.9115   83.8772   11.2297 N.pl3   1  PHE1       -0.3342
     26 H          64.8751   84.0776   11.2545 H       1  PHE1        0.1466
     27 CA         63.0379   84.5218   10.1946 C.3     1  PHE1        0.1029
     28 C          63.4607   84.5290    8.7554 C.3     1  PHE1        0.1568
     29 O          62.4775   84.9052    7.6868 O.3     1  PHE1       -0.3802
     30 H          61.7738   84.2390    7.6459 H       1  PHE1        0.2105
     31 CB         61.7416   85.1590   10.5987 C.3     1  PHE1        0.0484
     32 CG         61.4443   86.5736   10.1981 C.ar    1  PHE1       -0.0204
     33 CD1        62.3013   87.6937   10.7087 C.ar    1  PHE1       -0.0042
     34 CE1        62.0040   89.1083   10.3081 C.ar    1  PHE1       -0.0003
     35 CZ         60.8496   89.4029    9.3967 C.ar    1  PHE1       -0.0000
     36 CE2        59.9926   88.2828    8.8860 C.ar    1  PHE1       -0.0003
     37 CD2        60.2899   86.8682    9.2867 C.ar    1  PHE1       -0.0042
@<TRIPOS>BOND
     1     8     9    1
     2     9    10    2
     3    10    11    1
     4    11    18    1
     5    18    19   ar
     6    19    20   ar
     7    20    21   ar
     8    21    22    1
     9    21    23   ar
    10    23    24   ar
    11    11    12    2
    12    12    13    1
    13    13    14    2
    14    14    15    1
    15    15     1    1
    16     1     2    1
    17     2    25    1
    18    25    27    1
    19    27    28    1
    20    28    29    1
    21    27    31    1
    22    31    32    1
    23    32    33   ar
    24    33    34   ar
    25    34    35   ar
    26    35    36   ar
    27    36    37   ar
    28     2     3    2
    29     3     4    1
    30     4     5    2
    31     5     6    1
    32     6     7    2
    33    15    16    2
    34    16    17    1
    35    17     9    1
    36    24    18   ar
    37    17    13    1
    38     6     1    1
    39    37    32   ar
    40    25    26    1
    41    29    30    1
@<TRIPOS>MOLECULE
*****
 37 41 0 0 0
SMALL
GASTEIGER

@<TRIPOS>ATOM
      1 C          62.6457   88.5448   11.4327 C.3     0  UNK0        0.2246
      2 C          63.2942   89.5564   12.3306 C.2     0  UNK0        0.0436
      3 C          63.1713   91.0196   12.0237 C.2     0  UNK0        0.0288
      4 C          62.4000   91.4711   10.8190 C.2     0  UNK0        0.0896
      5 N          61.7515   90.4595    9.9212 N.am    0  UNK0       -0.1770
      6 C          61.8745   88.9963   10.2280 C.2     0  UNK0        0.2627
      7 O          61.2260   87.9847    9.3302 O.2     0  UNK0       -0.2719
      8 C          63.8561   84.2204   15.2953 C.3     0  UNK0        0.0312
      9 C          63.4601   83.8918   13.8863 C.2     0  UNK0        0.0124
     10 C          63.3685   82.4603   13.4475 C.2     0  UNK0       -0.0038
     11 C          62.9725   82.1316   12.0386 C.2     0  UNK0        0.0030
     12 C          62.6681   83.2344   11.0684 C.2     0  UNK0        0.0468
     13 C          62.7597   84.6658   11.5072 C.2     0  UNK0        0.2234
     14 N          62.5204   85.9558   10.7800 N.2     0  UNK0       -0.0378
     15 C          62.7686   87.0817   11.7395 C.2     0  UNK0        0.3605
     16 N          63.1612   86.4876   13.0597 N.2     0  UNK0       -0.0547
     17 C          63.1557   84.9945   12.9161 C.3     0  UNK0        0.2975
     18 C          62.8809   80.7001   11.5998 C.ar    0  UNK0        0.0002
     19 C          62.6282   79.6206   12.6103 C.ar    0  UNK0        0.0023
     20 C          62.5366   78.1892   12.1715 C.ar    0  UNK0        0.0296
     21 C          62.6977   77.8372   10.7224 C.ar    0  UNK0        0.1401
     22 F          62.6061   76.4058   10.2835 F       0  UNK0       -0.2042
     23 C          62.9504   78.9166    9.7119 C.ar    0  UNK0        0.0296
     24 C          63.0420   80.3481   10.1507 C.ar    0  UNK0        0.0023
     25 N          64.0655   89.1050   13.5352 N.pl3   1  PHE1       -0.3342
     26 H          64.6896   88.3469   13.4644 H       1  PHE1        0.1466
     27 CA         63.8858   89.8085   14.8478 C.3     1  PHE1        0.1029
     28 C          63.3985   89.0484   16.0456 C.3     1  PHE1        0.1568
     29 O          63.4345   87.5488   16.0479 O.3     1  PHE1       -0.3802
     30 H          62.8193   87.2096   15.3791 H       1  PHE1        0.2105
     31 CB         64.1936   91.2721   14.9625 C.3     1  PHE1        0.0484
     32 CG         65.6187   91.7396   14.9807 C.ar    1  PHE1       -0.0204
     33 CD1        66.4923   91.5301   13.7795 C.ar    1  PHE1       -0.0042
     34 CE1        67.9174   91.9976   13.7977 C.ar    1  PHE1       -0.0003
     35 CZ         68.4691   92.6747   15.0172 C.ar    1  PHE1       -0.0000
     36 CE2        67.5956   92.8842   16.2185 C.ar    1  PHE1       -0.0003
     37 CD2        66.1704   92.4167   16.2002 C.ar    1  PHE1       -0.0042
@<TRIPOS>BOND
     1     8     9    1
     2     9    10    2
     3    10    11    1
     4    11    18    1
     5    18    19   ar
     6    19    20   ar
     7    20    21   ar
     8    21    22    1
     9    21    23   ar
    10    23    24   ar
    11    11    12    2
    12    12    13    1
    13    13    14    2
    14    14    15    1
    15    15     1    1
    16     1     2    1
    17     2    25    1
    18    25    27    1
    19    27    28    1
    20    28    29    1
    21    27    31    1
    22    31    32    1
    23    32    33   ar
    24    33    34   ar
    25    34    35   ar
    26    35    36   ar
    27    36    37   ar
    28     2     3    2
    29     3     4    1
    30     4     5    2
    31     5     6    1
    32     6     7    2
    33    15    16    2
    34    16    17    1
    35    17     9    1
    36    24    18   ar
    37    17    13    1
    38     6     1    1
    39    37    32   ar
    40    25    26    1
    41    29    30    1
