@<TRIPOS>MOLECULE
*****
 28 30 0 0 0
SMALL
GASTEIGER

@<TRIPOS>ATOM
      1 C          60.2952   87.3293    9.0143 C.ar    1  UNL1        0.0618
      2 C          60.4304   88.5700    9.8463 C.ar    1  UNL1        0.0298
      3 C          61.3213   88.5704   11.0531 C.ar    1  UNL1        0.0662
      4 N          62.0769   87.3300   11.4279 N.ar    1  UNL1       -0.2306
      5 C          61.9417   86.0893   10.5959 C.ar    1  UNL1        0.1615
      6 N          61.0508   86.0889    9.3891 N.ar    1  UNL1       -0.2309
      7 C          62.6973   84.8488   10.9707 C.ar    1  UNL1        0.0366
      8 C          63.4249   84.0669    9.9175 C.ar    1  UNL1        0.0031
      9 C          64.1805   82.8264   10.2923 C.ar    1  UNL1        0.0010
     10 C          64.2085   82.3680   11.7203 C.ar    1  UNL1        0.0114
     11 C          63.4809   83.1500   12.7734 C.ar    1  UNL1        0.0578
     12 CL         63.5089   82.6916   14.2014 Cl      1  UNL1       -0.0822
     13 C          62.7253   84.3904   12.3986 C.ar    1  UNL1        0.0144
     14 C          59.1103   88.6140    7.0919 C.3     1  UNL1        0.0067
     15 C          59.4043   87.3289    7.8075 C.3     1  UNL1        0.0459
     16 C          61.4566   89.8112   11.8851 C.3     1  UNL1        0.0721
     17 C          62.7320   90.6001   11.8533 C.ar    1  UNL1       -0.0162
     18 C          63.1861   91.2406   10.5752 C.ar    1  UNL1       -0.0042
     19 C          64.4615   92.0295   10.5435 C.ar    1  UNL1       -0.0041
     20 C          65.2828   92.1779   11.7899 C.ar    1  UNL1       -0.0131
     21 C          64.8286   91.5374   13.0680 C.ar    1  UNL1       -0.0041
     22 C          63.5532   90.7485   13.0997 C.ar    1  UNL1       -0.0042
     23 C          66.5582   92.9668   11.7582 C.3     1  UNL1        0.1111
     24 C          66.6359   94.2351   10.9611 C.2     1  UNL1        0.2238
     25 N          65.6479   95.3368   11.2063 N.am    1  UNL1       -0.3285
     26 O          67.7016   94.4017    9.9187 O.2     1  UNL1       -0.2750
     27 H          64.9484   95.2274   11.8904 H       1  UNL1        0.1450
     28 H          65.6989   96.1692   10.6831 H       1  UNL1        0.1450
@<TRIPOS>BOND
     1    14    15    1
     2    15     1    1
     3     1     2   ar
     4     2     3   ar
     5     3    16    1
     6    16    17    1
     7    17    18   ar
     8    18    19   ar
     9    19    20   ar
    10    20    23    1
    11    23    24    1
    12    24    25   am
    13    24    26    2
    14    20    21   ar
    15    21    22   ar
    16     3     4   ar
    17     4     5   ar
    18     5     7    1
    19     7     8   ar
    20     8     9   ar
    21     9    10   ar
    22    10    11   ar
    23    11    12    1
    24    11    13   ar
    25     5     6   ar
    26     6     1   ar
    27    22    17   ar
    28    13     7   ar
    29    25    27    1
    30    25    28    1
@<TRIPOS>MOLECULE
*****
 28 30 0 0 0
SMALL
GASTEIGER

@<TRIPOS>ATOM
      1 C          61.0948   86.7528    9.4046 C.ar    1  UNL1        0.0618
      2 C          61.3142   88.1972    9.7448 C.ar    1  UNL1        0.0298
      3 C          62.0728   88.5689   10.9843 C.ar    1  UNL1        0.0662
      4 N          62.6119   87.4964   11.8836 N.ar    1  UNL1       -0.2306
      5 C          62.3925   86.0520   11.5435 C.ar    1  UNL1        0.1615
      6 N          61.6339   85.6803   10.3040 N.ar    1  UNL1       -0.2309
      7 C          62.9317   84.9794   12.4429 C.ar    1  UNL1        0.0366
      8 C          63.6951   85.3510   13.6794 C.ar    1  UNL1        0.0031
      9 C          64.2343   84.2784   14.5787 C.ar    1  UNL1        0.0010
     10 C          64.0100   82.8341   14.2415 C.ar    1  UNL1        0.0114
     11 C          63.2465   82.4625   13.0049 C.ar    1  UNL1        0.0578
     12 CL         63.0222   81.0182   12.6677 Cl      1  UNL1       -0.0822
     13 C          62.7074   83.5351   12.1056 C.ar    1  UNL1        0.0144
     14 C          59.0539   87.0840    7.8315 C.3     1  UNL1        0.0067
     15 C          60.3362   86.3811    8.1651 C.3     1  UNL1        0.0459
     16 C          62.2922   90.0133   11.3244 C.3     1  UNL1        0.0721
     17 C          63.4284   90.4086   12.2204 C.ar    1  UNL1       -0.0162
     18 C          64.3186   91.5549   11.8414 C.ar    1  UNL1       -0.0042
     19 C          65.4548   91.9502   12.7373 C.ar    1  UNL1       -0.0041
     20 C          65.7008   91.1992   14.0123 C.ar    1  UNL1       -0.0131
     21 C          64.8106   90.0530   14.3913 C.ar    1  UNL1       -0.0041
     22 C          63.6744   89.6577   13.4953 C.ar    1  UNL1       -0.0042
     23 C          66.8370   91.5945   14.9083 C.3     1  UNL1        0.1111
     24 C          66.6640   92.7172   15.8880 C.2     1  UNL1        0.2238
     25 N          65.4305   92.7868   16.7386 N.am    1  UNL1       -0.3285
     26 O          67.7245   93.7701   16.0171 O.2     1  UNL1       -0.2750
     27 H          64.7344   92.0958   16.6539 H       1  UNL1        0.1450
     28 H          65.3169   93.5236   17.3816 H       1  UNL1        0.1450
@<TRIPOS>BOND
     1    14    15    1
     2    15     1    1
     3     1     2   ar
     4     2     3   ar
     5     3    16    1
     6    16    17    1
     7    17    18   ar
     8    18    19   ar
     9    19    20   ar
    10    20    23    1
    11    23    24    1
    12    24    25   am
    13    24    26    2
    14    20    21   ar
    15    21    22   ar
    16     3     4   ar
    17     4     5   ar
    18     5     7    1
    19     7     8   ar
    20     8     9   ar
    21     9    10   ar
    22    10    11   ar
    23    11    12    1
    24    11    13   ar
    25     5     6   ar
    26     6     1   ar
    27    22    17   ar
    28    13     7   ar
    29    25    27    1
    30    25    28    1
@<TRIPOS>MOLECULE
*****
 28 30 0 0 0
SMALL
GASTEIGER

@<TRIPOS>ATOM
      1 C          60.2988   87.2721    9.0102 C.ar    1  UNL1        0.0618
      2 C          60.3992   88.5107    9.8502 C.ar    1  UNL1        0.0298
      3 C          61.2727   88.5212   11.0696 C.ar    1  UNL1        0.0662
      4 N          62.0458   87.2930   11.4489 N.ar    1  UNL1       -0.2306
      5 C          61.9453   86.0544   10.6089 C.ar    1  UNL1        0.1615
      6 N          61.0718   86.0439    9.3896 N.ar    1  UNL1       -0.2309
      7 C          62.7184   84.8261   10.9883 C.ar    1  UNL1        0.0366
      8 C          63.4649   84.0562    9.9397 C.ar    1  UNL1        0.0031
      9 C          64.2380   82.8279   10.3190 C.ar    1  UNL1        0.0010
     10 C          64.2644   82.3697   11.7471 C.ar    1  UNL1        0.0114
     11 C          63.5178   83.1397   12.7958 C.ar    1  UNL1        0.0578
     12 CL         63.5442   82.6815   14.2238 Cl      1  UNL1       -0.0822
     13 C          62.7448   84.3679   12.4164 C.ar    1  UNL1        0.0144
     14 C          59.0923   88.5484    7.0957 C.3     1  UNL1        0.0067
     15 C          59.4253   87.2616    7.7908 C.3     1  UNL1        0.0459
     16 C          61.3731   89.7599   11.9096 C.3     1  UNL1        0.0721
     17 C          62.6670   90.5156   11.9798 C.ar    1  UNL1       -0.0162
     18 C          63.4127   90.6069   13.2781 C.ar    1  UNL1       -0.0042
     19 C          64.7066   91.3626   13.3483 C.ar    1  UNL1       -0.0041
     20 C          65.2546   92.0270   12.1201 C.ar    1  UNL1       -0.0131
     21 C          64.5089   91.9357   10.8219 C.ar    1  UNL1       -0.0041
     22 C          63.2151   91.1800   10.7517 C.ar    1  UNL1       -0.0042
     23 C          66.5485   92.7827   12.1903 C.3     1  UNL1        0.1111
     24 C          67.4078   92.6863   13.4160 C.2     1  UNL1        0.2238
     25 N          68.5927   91.7666   13.4307 N.am    1  UNL1       -0.3285
     26 O          67.0822   93.5094   14.6270 O.2     1  UNL1       -0.2750
     27 H          68.8064   91.2264   12.6360 H       1  UNL1        0.1450
     28 H          69.1568   91.7033   14.2352 H       1  UNL1        0.1450
@<TRIPOS>BOND
     1    14    15    1
     2    15     1    1
     3     1     2   ar
     4     2     3   ar
     5     3    16    1
     6    16    17    1
     7    17    18   ar
     8    18    19   ar
     9    19    20   ar
    10    20    23    1
    11    23    24    1
    12    24    25   am
    13    24    26    2
    14    20    21   ar
    15    21    22   ar
    16     3     4   ar
    17     4     5   ar
    18     5     7    1
    19     7     8   ar
    20     8     9   ar
    21     9    10   ar
    22    10    11   ar
    23    11    12    1
    24    11    13   ar
    25     5     6   ar
    26     6     1   ar
    27    22    17   ar
    28    13     7   ar
    29    25    27    1
    30    25    28    1
@<TRIPOS>MOLECULE
*****
 28 30 0 0 0
SMALL
GASTEIGER

@<TRIPOS>ATOM
      1 C          62.5884   85.6829    9.0058 C.ar    1  UNL1        0.0618
      2 C          62.1968   87.1008    9.2993 C.ar    1  UNL1        0.0298
      3 C          62.0546   87.5608   10.7199 C.ar    1  UNL1        0.0662
      4 N          62.3041   86.6030   11.8470 N.ar    1  UNL1       -0.2306
      5 C          62.6956   85.1852   11.5534 C.ar    1  UNL1        0.1615
      6 N          62.8378   84.7251   10.1328 N.ar    1  UNL1       -0.2309
      7 C          62.9451   84.2273   12.6806 C.ar    1  UNL1        0.0366
      8 C          63.4991   84.7278   13.9815 C.ar    1  UNL1        0.0031
      9 C          63.7485   83.7699   15.1086 C.ar    1  UNL1        0.0010
     10 C          63.4439   82.3115   14.9347 C.ar    1  UNL1        0.0114
     11 C          62.8899   81.8110   13.6336 C.ar    1  UNL1        0.0578
     12 CL         62.5853   80.3525   13.4597 Cl      1  UNL1       -0.0822
     13 C          62.6405   82.7688   12.5066 C.ar    1  UNL1        0.0144
     14 C          61.5143   84.8388    6.7959 C.3     1  UNL1        0.0067
     15 C          62.7306   85.2228    7.5852 C.3     1  UNL1        0.0459
     16 C          61.6630   88.9788   11.0134 C.3     1  UNL1        0.0721
     17 C          62.7177   89.9991   11.3244 C.ar    1  UNL1       -0.0162
     18 C          63.1450   90.9804   10.2734 C.ar    1  UNL1       -0.0042
     19 C          64.1997   92.0006   10.5844 C.ar    1  UNL1       -0.0041
     20 C          64.8270   92.0397   11.9464 C.ar    1  UNL1       -0.0131
     21 C          64.3996   91.0585   12.9974 C.ar    1  UNL1       -0.0041
     22 C          63.3449   90.0382   12.6863 C.ar    1  UNL1       -0.0042
     23 C          65.8816   93.0600   12.2574 C.3     1  UNL1        0.1111
     24 C          66.7725   92.8781   13.4505 C.2     1  UNL1        0.2238
     25 N          66.4266   93.5380   14.7524 N.am    1  UNL1       -0.3285
     26 O          68.0091   92.0362   13.3417 O.2     1  UNL1       -0.2750
     27 H          65.6149   94.0906   14.8238 H       1  UNL1        0.1450
     28 H          67.0112   93.4186   15.5354 H       1  UNL1        0.1450
@<TRIPOS>BOND
     1    14    15    1
     2    15     1    1
     3     1     2   ar
     4     2     3   ar
     5     3    16    1
     6    16    17    1
     7    17    18   ar
     8    18    19   ar
     9    19    20   ar
    10    20    23    1
    11    23    24    1
    12    24    25   am
    13    24    26    2
    14    20    21   ar
    15    21    22   ar
    16     3     4   ar
    17     4     5   ar
    18     5     7    1
    19     7     8   ar
    20     8     9   ar
    21     9    10   ar
    22    10    11   ar
    23    11    12    1
    24    11    13   ar
    25     5     6   ar
    26     6     1   ar
    27    22    17   ar
    28    13     7   ar
    29    25    27    1
    30    25    28    1
@<TRIPOS>MOLECULE
*****
 28 30 0 0 0
SMALL
GASTEIGER

@<TRIPOS>ATOM
      1 C          67.2891   92.6567   15.0625 C.ar    1  UNL1        0.0618
      2 C          65.9808   91.9705   15.3216 C.ar    1  UNL1        0.0298
      3 C          65.0639   91.6478   14.1791 C.ar    1  UNL1        0.0662
      4 N          65.4554   92.0114   12.7775 N.ar    1  UNL1       -0.2306
      5 C          66.7638   92.6976   12.5184 C.ar    1  UNL1        0.1615
      6 N          67.6807   93.0202   13.6609 N.ar    1  UNL1       -0.2309
      7 C          67.1554   93.0612   11.1168 C.ar    1  UNL1        0.0366
      8 C          68.0315   92.1405   10.3201 C.ar    1  UNL1        0.0031
      9 C          68.4231   92.5041    8.9184 C.ar    1  UNL1        0.0010
     10 C          67.9386   93.7884    8.3136 C.ar    1  UNL1        0.0114
     11 C          67.0625   94.7091    9.1104 C.ar    1  UNL1        0.0578
     12 CL         66.5780   95.9934    8.5056 Cl      1  UNL1       -0.0822
     13 C          66.6709   94.3455   10.5120 C.ar    1  UNL1        0.0144
     14 C          69.1976   94.0976   16.0781 C.3     1  UNL1        0.0067
     15 C          68.2060   92.9793   16.2050 C.3     1  UNL1        0.0459
     16 C          63.7554   90.9616   14.4383 C.3     1  UNL1        0.0721
     17 C          63.7365   89.5524   14.9520 C.ar    1  UNL1       -0.0162
     18 C          64.3267   88.4460   14.1288 C.ar    1  UNL1       -0.0042
     19 C          64.3077   87.0369   14.6425 C.ar    1  UNL1       -0.0041
     20 C          63.6985   86.7341   15.9794 C.ar    1  UNL1       -0.0131
     21 C          63.1083   87.8405   16.8025 C.ar    1  UNL1       -0.0041
     22 C          63.1273   89.2496   16.2888 C.ar    1  UNL1       -0.0042
     23 C          63.6795   85.3249   16.4931 C.3     1  UNL1        0.1111
     24 C          63.1630   84.2167   15.6241 C.2     1  UNL1        0.2238
     25 N          61.8629   84.3800   14.8941 N.am    1  UNL1       -0.3285
     26 O          63.9467   82.9453   15.4851 O.2     1  UNL1       -0.2750
     27 H          61.3485   85.2145   14.9853 H       1  UNL1        0.1450
     28 H          61.5239   83.6527   14.3237 H       1  UNL1        0.1450
@<TRIPOS>BOND
     1    14    15    1
     2    15     1    1
     3     1     2   ar
     4     2     3   ar
     5     3    16    1
     6    16    17    1
     7    17    18   ar
     8    18    19   ar
     9    19    20   ar
    10    20    23    1
    11    23    24    1
    12    24    25   am
    13    24    26    2
    14    20    21   ar
    15    21    22   ar
    16     3     4   ar
    17     4     5   ar
    18     5     7    1
    19     7     8   ar
    20     8     9   ar
    21     9    10   ar
    22    10    11   ar
    23    11    12    1
    24    11    13   ar
    25     5     6   ar
    26     6     1   ar
    27    22    17   ar
    28    13     7   ar
    29    25    27    1
    30    25    28    1
@<TRIPOS>MOLECULE
*****
 28 30 0 0 0
SMALL
GASTEIGER

@<TRIPOS>ATOM
      1 C          61.4497   86.2452    8.8638 C.ar    1  UNL1        0.0618
      2 C          61.3589   87.7224    9.1084 C.ar    1  UNL1        0.0298
      3 C          61.7707   88.2897   10.4345 C.ar    1  UNL1        0.0662
      4 N          62.2731   87.3800   11.5161 N.ar    1  UNL1       -0.2306
      5 C          62.3638   85.9029   11.2715 C.ar    1  UNL1        0.1615
      6 N          61.9521   85.3355    9.9454 N.ar    1  UNL1       -0.2309
      7 C          62.8663   84.9930   12.3531 C.ar    1  UNL1        0.0366
      8 C          62.8288   83.5060   12.1598 C.ar    1  UNL1        0.0031
      9 C          63.3313   82.5962   13.2415 C.ar    1  UNL1        0.0010
     10 C          63.8712   83.1734   14.5163 C.ar    1  UNL1        0.0114
     11 C          63.9086   84.6605   14.7096 C.ar    1  UNL1        0.0578
     12 CL         64.4486   85.2378   15.9844 Cl      1  UNL1       -0.0822
     13 C          63.4062   85.5703   13.6280 C.ar    1  UNL1        0.0144
     14 C          62.0079   84.8590    6.7386 C.3     1  UNL1        0.0067
     15 C          61.0380   85.6779    7.5377 C.3     1  UNL1        0.0459
     16 C          61.6799   89.7669   10.6790 C.3     1  UNL1        0.0721
     17 C          62.8419   90.5003   11.2806 C.ar    1  UNL1       -0.0162
     18 C          63.1830   90.3063   12.7284 C.ar    1  UNL1       -0.0042
     19 C          64.3450   91.0396   13.3300 C.ar    1  UNL1       -0.0041
     20 C          65.1659   91.9671   12.4838 C.ar    1  UNL1       -0.0131
     21 C          64.8248   92.1611   11.0360 C.ar    1  UNL1       -0.0041
     22 C          63.6628   91.4277   10.4344 C.ar    1  UNL1       -0.0042
     23 C          66.3279   92.7005   13.0853 C.3     1  UNL1        0.1111
     24 C          67.5691   91.9516   13.4709 C.2     1  UNL1        0.2238
     25 N          67.7295   91.4354   14.8701 N.am    1  UNL1       -0.3285
     26 O          68.6499   91.7188   12.4572 O.2     1  UNL1       -0.2750
     27 H          67.0201   91.5882   15.5355 H       1  UNL1        0.1450
     28 H          68.5441   90.9439   15.1232 H       1  UNL1        0.1450
@<TRIPOS>BOND
     1    14    15    1
     2    15     1    1
     3     1     2   ar
     4     2     3   ar
     5     3    16    1
     6    16    17    1
     7    17    18   ar
     8    18    19   ar
     9    19    20   ar
    10    20    23    1
    11    23    24    1
    12    24    25   am
    13    24    26    2
    14    20    21   ar
    15    21    22   ar
    16     3     4   ar
    17     4     5   ar
    18     5     7    1
    19     7     8   ar
    20     8     9   ar
    21     9    10   ar
    22    10    11   ar
    23    11    12    1
    24    11    13   ar
    25     5     6   ar
    26     6     1   ar
    27    22    17   ar
    28    13     7   ar
    29    25    27    1
    30    25    28    1
@<TRIPOS>MOLECULE
*****
 28 30 0 0 0
SMALL
GASTEIGER

@<TRIPOS>ATOM
      1 C          63.9838   85.9428   13.9598 C.ar    1  UNL1        0.0618
      2 C          64.2698   87.3257   14.4655 C.ar    1  UNL1        0.0298
      3 C          63.7909   88.5201   13.6947 C.ar    1  UNL1        0.0662
      4 N          63.0260   88.3316   12.4182 N.ar    1  UNL1       -0.2306
      5 C          62.7400   86.9487   11.9126 C.ar    1  UNL1        0.1615
      6 N          63.2189   85.7543   12.6834 N.ar    1  UNL1       -0.2309
      7 C          61.9751   86.7601   10.6360 C.ar    1  UNL1        0.0366
      8 C          60.6292   87.4002   10.4666 C.ar    1  UNL1        0.0031
      9 C          59.8643   87.2117    9.1901 C.ar    1  UNL1        0.0010
     10 C          60.4454   86.3829    8.0831 C.ar    1  UNL1        0.0114
     11 C          61.7913   85.7427    8.2525 C.ar    1  UNL1        0.0578
     12 CL         62.3724   84.9140    7.1455 Cl      1  UNL1       -0.0822
     13 C          62.5562   85.9313    9.5290 C.ar    1  UNL1        0.0144
     14 C          63.4767   83.7371   15.2356 C.3     1  UNL1        0.0067
     15 C          64.4627   84.7484   14.7306 C.3     1  UNL1        0.0459
     16 C          64.0769   89.9031   14.2004 C.3     1  UNL1        0.0721
     17 C          64.6816   90.9261   13.2852 C.ar    1  UNL1       -0.0162
     18 C          65.8796   91.7132   13.7273 C.ar    1  UNL1       -0.0042
     19 C          66.4844   92.7363   12.8121 C.ar    1  UNL1       -0.0041
     20 C          65.8911   92.9723   11.4547 C.ar    1  UNL1       -0.0131
     21 C          64.6932   92.1853   11.0126 C.ar    1  UNL1       -0.0041
     22 C          64.0884   91.1622   11.9279 C.ar    1  UNL1       -0.0042
     23 C          66.4958   93.9954   10.5395 C.3     1  UNL1        0.1111
     24 C          67.5902   93.6010    9.5925 C.2     1  UNL1        0.2238
     25 N          68.5913   92.5591    9.9954 N.am    1  UNL1       -0.3285
     26 O          67.6835   94.2484    8.2427 O.2     1  UNL1       -0.2750
     27 H          68.5301   92.1342   10.8814 H       1  UNL1        0.1450
     28 H          69.3096   92.3002    9.3739 H       1  UNL1        0.1450
@<TRIPOS>BOND
     1    14    15    1
     2    15     1    1
     3     1     2   ar
     4     2     3   ar
     5     3    16    1
     6    16    17    1
     7    17    18   ar
     8    18    19   ar
     9    19    20   ar
    10    20    23    1
    11    23    24    1
    12    24    25   am
    13    24    26    2
    14    20    21   ar
    15    21    22   ar
    16     3     4   ar
    17     4     5   ar
    18     5     7    1
    19     7     8   ar
    20     8     9   ar
    21     9    10   ar
    22    10    11   ar
    23    11    12    1
    24    11    13   ar
    25     5     6   ar
    26     6     1   ar
    27    22    17   ar
    28    13     7   ar
    29    25    27    1
    30    25    28    1
@<TRIPOS>MOLECULE
*****
 28 30 0 0 0
SMALL
GASTEIGER

@<TRIPOS>ATOM
      1 C          63.8035   86.5507   13.8863 C.ar    1  UNL1        0.0618
      2 C          63.9568   88.0112   14.1914 C.ar    1  UNL1        0.0298
      3 C          63.4831   89.0373   13.2051 C.ar    1  UNL1        0.0662
      4 N          62.8560   88.6027   11.9137 N.ar    1  UNL1       -0.2306
      5 C          62.7027   87.1421   11.6085 C.ar    1  UNL1        0.1615
      6 N          63.1765   86.1161   12.5949 N.ar    1  UNL1       -0.2309
      7 C          62.0756   86.7075   10.3170 C.ar    1  UNL1        0.0366
      8 C          62.7666   85.6968    9.4505 C.ar    1  UNL1        0.0031
      9 C          62.1395   85.2622    8.1590 C.ar    1  UNL1        0.0010
     10 C          60.8213   85.8383    7.7341 C.ar    1  UNL1        0.0114
     11 C          60.1303   86.8490    8.6007 C.ar    1  UNL1        0.0578
     12 CL         58.8121   87.4251    8.1758 Cl      1  UNL1       -0.0822
     13 C          60.7574   87.2836    9.8921 C.ar    1  UNL1        0.0144
     14 C          65.3124   84.5172   14.4681 C.3     1  UNL1        0.0067
     15 C          64.2773   85.5246   14.8726 C.3     1  UNL1        0.0459
     16 C          63.6364   90.4979   13.5103 C.3     1  UNL1        0.0721
     17 C          64.5210   91.3543   12.6535 C.ar    1  UNL1       -0.0162
     18 C          64.0958   91.7136   11.2606 C.ar    1  UNL1       -0.0042
     19 C          64.9805   92.5699   10.4038 C.ar    1  UNL1       -0.0041
     20 C          66.2903   93.0670   10.9399 C.ar    1  UNL1       -0.0131
     21 C          66.7154   92.7077   12.3328 C.ar    1  UNL1       -0.0041
     22 C          65.8308   91.8513   13.1896 C.ar    1  UNL1       -0.0042
     23 C          67.1749   93.9233   10.0831 C.3     1  UNL1        0.1111
     24 C          66.9893   95.4118   10.0662 C.2     1  UNL1        0.2238
     25 N          67.6793   96.2418    9.0245 N.am    1  UNL1       -0.3285
     26 O          66.1138   96.0701   11.0909 O.2     1  UNL1       -0.2750
     27 H          68.2539   95.8096    8.3520 H       1  UNL1        0.1450
     28 H          67.5576   97.2186    9.0134 H       1  UNL1        0.1450
@<TRIPOS>BOND
     1    14    15    1
     2    15     1    1
     3     1     2   ar
     4     2     3   ar
     5     3    16    1
     6    16    17    1
     7    17    18   ar
     8    18    19   ar
     9    19    20   ar
    10    20    23    1
    11    23    24    1
    12    24    25   am
    13    24    26    2
    14    20    21   ar
    15    21    22   ar
    16     3     4   ar
    17     4     5   ar
    18     5     7    1
    19     7     8   ar
    20     8     9   ar
    21     9    10   ar
    22    10    11   ar
    23    11    12    1
    24    11    13   ar
    25     5     6   ar
    26     6     1   ar
    27    22    17   ar
    28    13     7   ar
    29    25    27    1
    30    25    28    1
@<TRIPOS>MOLECULE
*****
 28 30 0 0 0
SMALL
GASTEIGER

@<TRIPOS>ATOM
      1 C          60.2552   88.5878    8.2721 C.ar    1  UNL1        0.0618
      2 C          60.7534   87.1875    8.0698 C.ar    1  UNL1        0.0298
      3 C          61.9595   86.7049    8.8197 C.ar    1  UNL1        0.0662
      4 N          62.6674   87.6226    9.7719 N.ar    1  UNL1       -0.2306
      5 C          62.1693   89.0228    9.9742 C.ar    1  UNL1        0.1615
      6 N          60.9631   89.5055    9.2243 N.ar    1  UNL1       -0.2309
      7 C          62.8772   89.9406   10.9264 C.ar    1  UNL1        0.0366
      8 C          63.5602   91.1731   10.4122 C.ar    1  UNL1        0.0031
      9 C          64.2681   92.0909   11.3644 C.ar    1  UNL1        0.0010
     10 C          64.2930   91.7760   12.8308 C.ar    1  UNL1        0.0114
     11 C          63.6100   90.5434   13.3449 C.ar    1  UNL1        0.0578
     12 CL         63.6349   90.2286   14.8113 Cl      1  UNL1       -0.0822
     13 C          62.9021   89.6258   12.3928 C.ar    1  UNL1        0.0144
     14 C          59.2146   89.7673    6.2043 C.3     1  UNL1        0.0067
     15 C          59.0491   89.0704    7.5222 C.3     1  UNL1        0.0459
     16 C          62.4577   85.3045    8.6174 C.3     1  UNL1        0.0721
     17 C          62.9113   84.4925    9.7942 C.ar    1  UNL1       -0.0162
     18 C          63.9738   83.4480    9.6200 C.ar    1  UNL1       -0.0042
     19 C          64.4274   82.6360   10.7968 C.ar    1  UNL1       -0.0041
     20 C          63.8185   82.8685   12.1479 C.ar    1  UNL1       -0.0131
     21 C          62.7561   83.9129   12.3220 C.ar    1  UNL1       -0.0041
     22 C          62.3025   84.7249   11.1452 C.ar    1  UNL1       -0.0042
     23 C          64.2721   82.0565   13.3247 C.3     1  UNL1        0.1111
     24 C          63.2729   81.5802   14.3371 C.2     1  UNL1        0.2238
     25 N          62.8091   82.5032   15.4247 N.am    1  UNL1       -0.3285
     26 O          62.7377   80.1810   14.2619 O.2     1  UNL1       -0.2750
     27 H          63.1604   83.4215   15.4741 H       1  UNL1        0.1450
     28 H          62.1534   82.1906   16.0892 H       1  UNL1        0.1450
@<TRIPOS>BOND
     1    14    15    1
     2    15     1    1
     3     1     2   ar
     4     2     3   ar
     5     3    16    1
     6    16    17    1
     7    17    18   ar
     8    18    19   ar
     9    19    20   ar
    10    20    23    1
    11    23    24    1
    12    24    25   am
    13    24    26    2
    14    20    21   ar
    15    21    22   ar
    16     3     4   ar
    17     4     5   ar
    18     5     7    1
    19     7     8   ar
    20     8     9   ar
    21     9    10   ar
    22    10    11   ar
    23    11    12    1
    24    11    13   ar
    25     5     6   ar
    26     6     1   ar
    27    22    17   ar
    28    13     7   ar
    29    25    27    1
    30    25    28    1
