@<TRIPOS>MOLECULE
*****
 34 37 0 0 0
SMALL
GASTEIGER

@<TRIPOS>ATOM
      1 C          62.8690   89.8188   12.7625 C.ar    1  UNL1        0.0359
      2 S          63.4687   90.7402   11.7420 S.2     1  UNL1       -0.0718
      3 C          64.4796   91.6045   12.4354 C.ar    1  UNL1        0.0983
      4 C          64.5047   91.2174   13.8844 C.ar    1  UNL1        0.0830
      5 C          63.5093   90.1137   14.0865 C.ar    1  UNL1        0.0639
      6 C          65.4308   91.9198   14.8325 C.ar    1  UNL1        0.2663
      7 O          65.4559   91.5327   16.2815 O.2     1  UNL1       -0.2668
      8 N          66.3318   93.0095   14.3316 N.ar    1  UNL1       -0.2467
      9 C          67.2579   93.7120   15.2798 C.3     1  UNL1        0.1382
     10 C          66.3067   93.3967   12.8828 C.ar    1  UNL1        0.3342
     11 O          67.2078   94.4864   12.3819 O.2     1  UNL1       -0.2462
     12 N          65.3806   92.6942   11.9346 N.ar    1  UNL1       -0.2757
     13 C          63.2071   89.4257   15.3847 C.2     1  UNL1        0.2495
     14 O          62.5176   90.1735   16.4871 O.2     1  UNL1       -0.2699
     15 N          63.5945   87.9898   15.5806 N.am    1  UNL1       -0.2735
     16 C          63.3590   87.1738   16.8170 C.3     1  UNL1        0.0964
     17 C          63.9043   85.7976   16.5749 C.3     1  UNL1        0.0525
     18 C          64.4769   85.7631   15.1889 C.3     1  UNL1        0.1320
     19 O          65.1268   84.5812   14.5328 O.3     1  UNL1       -0.3827
     20 C          64.2854   87.1179   14.5744 C.3     1  UNL1        0.1228
     21 H          65.1233   83.8289   15.1452 H       1  UNL1        0.2104
     22 C          61.8141   88.7841   12.5043 C.3     1  UNL1        0.1413
     23 C          62.5603   86.0643   10.8625 C.3     1  UNL1        0.0719
     24 C          61.7492   87.2137   10.3421 C.ar    1  UNL1        0.1226
     25 N          61.1386   87.3149    8.9757 N.ar    1  UNL1       -0.2186
     26 C          60.4183   88.6275    8.8859 C.ar    1  UNL1        0.1661
     27 CL         59.6649   89.1400    7.6944 Cl      1  UNL1       -0.0588
     28 C          60.5836   89.3376   10.1967 C.ar    1  UNL1        0.1487
     29 CL         60.0246   90.6849   10.5462 Cl      1  UNL1       -0.0606
     30 N          61.4062   88.4639   11.0968 N.ar    1  UNL1       -0.3007
     31 C          65.3556   93.0815   10.4856 C.3     1  UNL1        0.1109
     32 C          66.6417   93.3050    9.7467 C.3     1  UNL1        0.0228
     33 C          66.8755   94.5977    9.0225 C.3     1  UNL1        0.0020
     34 C          67.6939   92.2361    9.7320 C.3     1  UNL1        0.0020
@<TRIPOS>BOND
     1    23    24    1
     2    24    25   ar
     3    25    26   ar
     4    26    27    1
     5    26    28   ar
     6    28    29    1
     7    28    30   ar
     8    30    22    1
     9    22     1    1
    10     1     2   ar
    11     2     3   ar
    12     3     4   ar
    13     4     5   ar
    14     5    13    1
    15    13    14    2
    16    13    15   am
    17    15    16    1
    18    16    17    1
    19    17    18    1
    20    18    19    1
    21    18    20    1
    22     4     6   ar
    23     6     7    2
    24     6     8   ar
    25     8     9    1
    26     8    10   ar
    27    10    11    2
    28    10    12   ar
    29    12    31    1
    30    31    32    1
    31    32    33    1
    32    32    34    1
    33    30    24   ar
    34     5     1   ar
    35    20    15    1
    36    12     3   ar
    37    19    21    1
@<TRIPOS>MOLECULE
*****
 34 37 0 0 0
SMALL
GASTEIGER

@<TRIPOS>ATOM
      1 C          59.7614   93.4663   -2.3947 C.ar    1  UNL1        0.0359
      2 S          60.0075   93.0211   -0.9836 S.2     1  UNL1       -0.0718
      3 C          61.3619   93.5164   -0.5709 C.ar    1  UNL1        0.0983
      4 C          61.9528   94.2677   -1.7269 C.ar    1  UNL1        0.0830
      5 C          60.9637   94.2367   -2.8541 C.ar    1  UNL1        0.0639
      6 C          63.3153   94.8830   -1.6037 C.ar    1  UNL1        0.2663
      7 O          63.9062   95.6343   -2.7597 O.2     1  UNL1       -0.2668
      8 N          64.0868   94.7469   -0.3246 N.ar    1  UNL1       -0.2467
      9 C          65.4493   95.3622   -0.2015 C.3     1  UNL1        0.1382
     10 C          63.4959   93.9957    0.8314 C.ar    1  UNL1        0.3342
     11 O          64.2674   93.8597    2.1106 O.2     1  UNL1       -0.2462
     12 N          62.1334   93.3804    0.7083 N.ar    1  UNL1       -0.2757
     13 C          61.1449   94.8657   -4.2037 C.2     1  UNL1        0.2495
     14 O          60.3613   96.0907   -4.5715 O.2     1  UNL1       -0.2699
     15 N          62.1097   94.2698   -5.1855 N.am    1  UNL1       -0.2735
     16 C          62.3955   94.7854   -6.5648 C.3     1  UNL1        0.0964
     17 C          63.4206   93.8878   -7.1921 C.3     1  UNL1        0.0525
     18 C          63.7684   92.8174   -6.2005 C.3     1  UNL1        0.1320
     19 O          64.7533   91.7061   -6.4120 O.3     1  UNL1       -0.3827
     20 C          62.9582   93.0535   -4.9604 C.3     1  UNL1        0.1228
     21 H          65.1398   91.7810   -7.2985 H       1  UNL1        0.2104
     22 C          58.5293   93.1896   -3.2043 C.3     1  UNL1        0.1413
     23 C          56.0531   91.1405   -2.6398 C.3     1  UNL1        0.0719
     24 C          56.0413   92.6225   -2.4085 C.ar    1  UNL1        0.1226
     25 N          54.8894   93.4228   -1.8770 N.ar    1  UNL1       -0.2186
     26 C          55.3156   94.8592   -1.8080 C.ar    1  UNL1        0.1661
     27 CL         54.4741   96.0067   -1.3335 Cl      1  UNL1       -0.0588
     28 C          56.7310   94.9468   -2.2968 C.ar    1  UNL1        0.1487
     29 CL         57.5534   96.1972   -2.3969 Cl      1  UNL1       -0.0606
     30 N          57.1796   93.5644   -2.6679 N.ar    1  UNL1       -0.3007
     31 C          61.5425   92.6291    1.8644 C.3     1  UNL1        0.1109
     32 C          60.5099   93.2825    2.7343 C.3     1  UNL1        0.0228
     33 C          60.1764   94.7323    2.5426 C.3     1  UNL1        0.0020
     34 C          59.8108   92.4861    3.7960 C.3     1  UNL1        0.0020
@<TRIPOS>BOND
     1    23    24    1
     2    24    25   ar
     3    25    26   ar
     4    26    27    1
     5    26    28   ar
     6    28    29    1
     7    28    30   ar
     8    30    22    1
     9    22     1    1
    10     1     2   ar
    11     2     3   ar
    12     3     4   ar
    13     4     5   ar
    14     5    13    1
    15    13    14    2
    16    13    15   am
    17    15    16    1
    18    16    17    1
    19    17    18    1
    20    18    19    1
    21    18    20    1
    22     4     6   ar
    23     6     7    2
    24     6     8   ar
    25     8     9    1
    26     8    10   ar
    27    10    11    2
    28    10    12   ar
    29    12    31    1
    30    31    32    1
    31    32    33    1
    32    32    34    1
    33    30    24   ar
    34     5     1   ar
    35    20    15    1
    36    12     3   ar
    37    19    21    1
@<TRIPOS>MOLECULE
*****
 34 37 0 0 0
SMALL
GASTEIGER

@<TRIPOS>ATOM
      1 C          64.7608   92.3931   12.2626 C.ar    1  UNL1        0.0359
      2 S          64.0422   91.6086   11.2052 S.2     1  UNL1       -0.0718
      3 C          63.7092   90.2611   11.7737 C.ar    1  UNL1        0.0983
      4 C          64.2220   90.2127   13.1825 C.ar    1  UNL1        0.0830
      5 C          64.8720   91.5304   13.4846 C.ar    1  UNL1        0.0639
      6 C          64.0309   88.9751   14.0082 C.ar    1  UNL1        0.2663
      7 O          64.5438   88.9268   15.4169 O.2     1  UNL1       -0.2668
      8 N          63.3269   87.7858   13.4251 N.ar    1  UNL1       -0.2467
      9 C          63.1358   86.5482   14.2508 C.3     1  UNL1        0.1382
     10 C          62.8141   87.8342   12.0164 C.ar    1  UNL1        0.3342
     11 O          62.1101   86.6448   11.4333 O.2     1  UNL1       -0.2462
     12 N          63.0052   89.0718   11.1906 N.ar    1  UNL1       -0.2757
     13 C          65.5195   91.9175   14.7811 C.2     1  UNL1        0.2495
     14 O          64.6774   92.1449   16.0014 O.2     1  UNL1       -0.2699
     15 N          67.0091   92.0771   14.8573 N.am    1  UNL1       -0.2735
     16 C          67.7937   92.4579   16.0777 C.3     1  UNL1        0.0964
     17 C          69.2450   92.5001   15.7012 C.3     1  UNL1        0.0525
     18 C          69.3574   92.1453   14.2481 C.3     1  UNL1        0.1320
     19 O          70.6285   92.0659   13.4557 O.3     1  UNL1       -0.3827
     20 C          67.9755   91.8839   13.7266 C.3     1  UNL1        0.1228
     21 H          71.3808   92.2810   14.0290 H       1  UNL1        0.2104
     22 C          65.2776   93.7943   12.1225 C.3     1  UNL1        0.1413
     23 C          67.5477   92.0629   10.5417 C.3     1  UNL1        0.0719
     24 C          67.0323   93.4137   10.1422 C.ar    1  UNL1        0.1226
     25 N          67.4698   94.2059    8.9459 N.ar    1  UNL1       -0.2186
     26 C          66.6968   95.4913    8.9332 C.ar    1  UNL1        0.1661
     27 CL         66.8178   96.5828    7.9115 Cl      1  UNL1       -0.0588
     28 C          65.7815   95.4936   10.1215 C.ar    1  UNL1        0.1487
     29 CL         64.8266   96.5877   10.4968 Cl      1  UNL1       -0.0606
     30 N          65.9888   94.2096   10.8688 N.ar    1  UNL1       -0.3007
     31 C          62.4923   89.1201    9.7818 C.3     1  UNL1        0.1109
     32 C          61.0242   89.2874    9.5235 C.3     1  UNL1        0.0228
     33 C          60.3528   88.4731    8.4576 C.3     1  UNL1        0.0020
     34 C          60.2276   90.2688   10.3310 C.3     1  UNL1        0.0020
@<TRIPOS>BOND
     1    23    24    1
     2    24    25   ar
     3    25    26   ar
     4    26    27    1
     5    26    28   ar
     6    28    29    1
     7    28    30   ar
     8    30    22    1
     9    22     1    1
    10     1     2   ar
    11     2     3   ar
    12     3     4   ar
    13     4     5   ar
    14     5    13    1
    15    13    14    2
    16    13    15   am
    17    15    16    1
    18    16    17    1
    19    17    18    1
    20    18    19    1
    21    18    20    1
    22     4     6   ar
    23     6     7    2
    24     6     8   ar
    25     8     9    1
    26     8    10   ar
    27    10    11    2
    28    10    12   ar
    29    12    31    1
    30    31    32    1
    31    32    33    1
    32    32    34    1
    33    30    24   ar
    34     5     1   ar
    35    20    15    1
    36    12     3   ar
    37    19    21    1
@<TRIPOS>MOLECULE
*****
 34 37 0 0 0
SMALL
GASTEIGER

@<TRIPOS>ATOM
      1 C          59.7240   94.9120   -2.7094 C.ar    1  UNL1        0.0359
      2 S          59.8540   94.7541   -1.2234 S.2     1  UNL1       -0.0718
      3 C          61.2627   95.1005   -0.8419 C.ar    1  UNL1        0.0983
      4 C          62.0033   95.4726   -2.0922 C.ar    1  UNL1        0.0830
      5 C          61.0524   95.3561   -3.2463 C.ar    1  UNL1        0.0639
      6 C          63.4480   95.8694   -2.0181 C.ar    1  UNL1        0.2663
      7 O          64.1887   96.2414   -3.2683 O.2     1  UNL1       -0.2668
      8 N          64.1520   95.8941   -0.6938 N.ar    1  UNL1       -0.2467
      9 C          65.5968   96.2909   -0.6198 C.3     1  UNL1        0.1382
     10 C          63.4114   95.5221    0.5563 C.ar    1  UNL1        0.3342
     11 O          64.1155   95.5468    1.8807 O.2     1  UNL1       -0.2462
     12 N          61.9667   95.1253    0.4823 N.ar    1  UNL1       -0.2757
     13 C          61.3733   95.6347   -4.6848 C.2     1  UNL1        0.2495
     14 O          60.8166   96.8560   -5.3545 O.2     1  UNL1       -0.2699
     15 N          62.2511   94.6921   -5.4536 N.am    1  UNL1       -0.2735
     16 C          62.6568   94.8386   -6.8902 C.3     1  UNL1        0.0964
     17 C          63.5337   93.6745   -7.2453 C.3     1  UNL1        0.0525
     18 C          63.6698   92.8085   -6.0281 C.3     1  UNL1        0.1320
     19 O          64.4598   91.5370   -5.9347 O.3     1  UNL1       -0.3827
     20 C          62.8771   93.4374   -4.9208 C.3     1  UNL1        0.1228
     21 H          64.8775   91.3522   -6.7905 H       1  UNL1        0.2104
     22 C          58.4835   94.6687   -3.5167 C.3     1  UNL1        0.1413
     23 C          56.2716   95.4637   -1.2528 C.3     1  UNL1        0.0719
     24 C          56.3890   94.1372   -1.9432 C.ar    1  UNL1        0.1226
     25 N          55.5104   92.9432   -1.7141 N.ar    1  UNL1       -0.2186
     26 C          55.9841   91.8399   -2.6132 C.ar    1  UNL1        0.1661
     27 CL         55.3905   90.4658   -2.7104 Cl      1  UNL1       -0.0588
     28 C          57.1554   92.3519   -3.3978 C.ar    1  UNL1        0.1487
     29 CL         57.9389   91.5797   -4.4175 Cl      1  UNL1       -0.0606
     30 N          57.4057   93.7718   -2.9838 N.ar    1  UNL1       -0.3007
     31 C          61.2261   94.7532    1.7326 C.3     1  UNL1        0.1109
     32 C          61.0960   93.3117    2.1264 C.3     1  UNL1        0.0228
     33 C          59.8232   92.8156    2.7461 C.3     1  UNL1        0.0020
     34 C          62.2384   92.3663    1.9004 C.3     1  UNL1        0.0020
@<TRIPOS>BOND
     1    23    24    1
     2    24    25   ar
     3    25    26   ar
     4    26    27    1
     5    26    28   ar
     6    28    29    1
     7    28    30   ar
     8    30    22    1
     9    22     1    1
    10     1     2   ar
    11     2     3   ar
    12     3     4   ar
    13     4     5   ar
    14     5    13    1
    15    13    14    2
    16    13    15   am
    17    15    16    1
    18    16    17    1
    19    17    18    1
    20    18    19    1
    21    18    20    1
    22     4     6   ar
    23     6     7    2
    24     6     8   ar
    25     8     9    1
    26     8    10   ar
    27    10    11    2
    28    10    12   ar
    29    12    31    1
    30    31    32    1
    31    32    33    1
    32    32    34    1
    33    30    24   ar
    34     5     1   ar
    35    20    15    1
    36    12     3   ar
    37    19    21    1
@<TRIPOS>MOLECULE
*****
 34 37 0 0 0
SMALL
GASTEIGER

@<TRIPOS>ATOM
      1 C          63.1003   86.2083   12.2253 C.ar    1  UNL1        0.0359
      2 S          62.4145   87.5337   12.0736 S.2     1  UNL1       -0.0718
      3 C          61.6943   87.5350   10.7579 C.ar    1  UNL1        0.0983
      4 C          61.9349   86.2103   10.0964 C.ar    1  UNL1        0.0830
      5 C          62.8039   85.3904   11.0034 C.ar    1  UNL1        0.0639
      6 C          61.3317   85.9219    8.7537 C.ar    1  UNL1        0.2663
      7 O          61.5723   84.5973    8.0922 O.2     1  UNL1       -0.2668
      8 N          60.4878   86.9581    8.0724 N.ar    1  UNL1       -0.2467
      9 C          59.8845   86.6696    6.7297 C.3     1  UNL1        0.1382
     10 C          60.2471   88.2827    8.7338 C.ar    1  UNL1        0.3342
     11 O          59.4032   89.3189    8.0525 O.2     1  UNL1       -0.2462
     12 N          60.8504   88.5711   10.0766 N.ar    1  UNL1       -0.2757
     13 C          63.2910   83.9973   10.7354 C.2     1  UNL1        0.2495
     14 O          64.1506   83.7207    9.5377 O.2     1  UNL1       -0.2699
     15 N          62.9185   82.8807   11.6652 N.am    1  UNL1       -0.2735
     16 C          63.3286   81.4444   11.5272 C.3     1  UNL1        0.0964
     17 C          62.7341   80.6804   12.6729 C.3     1  UNL1        0.0525
     18 C          61.9566   81.6445   13.5192 C.3     1  UNL1        0.1320
     19 O          61.1983   81.3078   14.7687 O.3     1  UNL1       -0.3827
     20 C          62.0706   83.0043   12.8964 C.3     1  UNL1        0.1228
     21 H          61.2848   80.3595   14.9538 H       1  UNL1        0.2104
     22 C          63.9358   85.7766   13.3939 C.3     1  UNL1        0.1413
     23 C          64.5043   88.8759   14.2429 C.3     1  UNL1        0.0719
     24 C          63.9606   87.8021   15.1381 C.ar    1  UNL1        0.1226
     25 N          63.5827   87.9643   16.5806 N.ar    1  UNL1       -0.2186
     26 C          63.0878   86.6400   17.0818 C.ar    1  UNL1        0.1661
     27 CL         62.6055   86.3477   18.4718 Cl      1  UNL1       -0.0588
     28 C          63.1598   85.6593   15.9492 C.ar    1  UNL1        0.1487
     29 CL         62.7623   84.2142   16.0075 Cl      1  UNL1       -0.0606
     30 N          63.6993   86.3774   14.7478 N.ar    1  UNL1       -0.3007
     31 C          60.6097   89.8958   10.7380 C.3     1  UNL1        0.1109
     32 C          59.4045   90.0910   11.6095 C.3     1  UNL1        0.0228
     33 C          58.9368   88.9800   12.5022 C.3     1  UNL1        0.0020
     34 C          58.6671   91.3970   11.5882 C.3     1  UNL1        0.0020
@<TRIPOS>BOND
     1    23    24    1
     2    24    25   ar
     3    25    26   ar
     4    26    27    1
     5    26    28   ar
     6    28    29    1
     7    28    30   ar
     8    30    22    1
     9    22     1    1
    10     1     2   ar
    11     2     3   ar
    12     3     4   ar
    13     4     5   ar
    14     5    13    1
    15    13    14    2
    16    13    15   am
    17    15    16    1
    18    16    17    1
    19    17    18    1
    20    18    19    1
    21    18    20    1
    22     4     6   ar
    23     6     7    2
    24     6     8   ar
    25     8     9    1
    26     8    10   ar
    27    10    11    2
    28    10    12   ar
    29    12    31    1
    30    31    32    1
    31    32    33    1
    32    32    34    1
    33    30    24   ar
    34     5     1   ar
    35    20    15    1
    36    12     3   ar
    37    19    21    1
@<TRIPOS>MOLECULE
*****
 34 37 0 0 0
SMALL
GASTEIGER

@<TRIPOS>ATOM
      1 C          63.3224   85.6466   12.4864 C.ar    1  UNL1        0.0359
      2 S          62.6663   86.9744   12.2493 S.2     1  UNL1       -0.0718
      3 C          62.0544   86.9511   10.8800 C.ar    1  UNL1        0.0983
      4 C          62.3324   85.6088   10.2708 C.ar    1  UNL1        0.0830
      5 C          63.1161   84.8026   11.2637 C.ar    1  UNL1        0.0639
      6 C          61.8359   85.2942    8.8908 C.ar    1  UNL1        0.2663
      7 O          62.1139   83.9519    8.2816 O.2     1  UNL1       -0.2668
      8 N          61.0615   86.3218    8.1199 N.ar    1  UNL1       -0.2467
      9 C          60.5651   86.0071    6.7398 C.3     1  UNL1        0.1382
     10 C          60.7836   87.6640    8.7290 C.ar    1  UNL1        0.3342
     11 O          60.0091   88.6917    7.9580 O.2     1  UNL1       -0.2462
     12 N          61.2800   87.9787   10.1091 N.ar    1  UNL1       -0.2757
     13 C          63.6072   83.3988   11.0682 C.2     1  UNL1        0.2495
     14 O          64.6855   83.1144   10.0650 O.2     1  UNL1       -0.2699
     15 N          63.0199   82.2794   11.8757 N.am    1  UNL1       -0.2735
     16 C          63.4078   80.8330   11.7905 C.3     1  UNL1        0.0964
     17 C          62.5693   80.0696   12.7724 C.3     1  UNL1        0.0525
     18 C          61.6632   81.0442   13.4645 C.3     1  UNL1        0.1320
     19 O          60.6555   80.7115   14.5245 O.3     1  UNL1       -0.3827
     20 C          61.9417   82.4099   12.9103 C.3     1  UNL1        0.1228
     21 H          60.6749   79.7579   14.7010 H       1  UNL1        0.2104
     22 C          64.0561   85.2349   13.7283 C.3     1  UNL1        0.1413
     23 C          62.4643   83.4516   15.9499 C.3     1  UNL1        0.0719
     24 C          62.8545   84.8930   16.0914 C.ar    1  UNL1        0.1226
     25 N          62.5815   85.7678   17.2789 N.ar    1  UNL1       -0.2186
     26 C          63.1445   87.1282   16.9917 C.ar    1  UNL1        0.1661
     27 CL         63.0952   88.3143   17.9085 Cl      1  UNL1       -0.0588
     28 C          63.7654   87.0941   15.6267 C.ar    1  UNL1        0.1487
     29 CL         64.4460   88.2402   14.9389 Cl      1  UNL1       -0.0606
     30 N          63.5862   85.7127   15.0702 N.ar    1  UNL1       -0.3007
     31 C          61.0020   89.3210   10.7182 C.3     1  UNL1        0.1109
     32 C          62.1365   90.2476   11.0410 C.3     1  UNL1        0.0228
     33 C          62.8352   90.9896    9.9404 C.3     1  UNL1        0.0020
     34 C          62.5723   90.4323   12.4644 C.3     1  UNL1        0.0020
@<TRIPOS>BOND
     1    23    24    1
     2    24    25   ar
     3    25    26   ar
     4    26    27    1
     5    26    28   ar
     6    28    29    1
     7    28    30   ar
     8    30    22    1
     9    22     1    1
    10     1     2   ar
    11     2     3   ar
    12     3     4   ar
    13     4     5   ar
    14     5    13    1
    15    13    14    2
    16    13    15   am
    17    15    16    1
    18    16    17    1
    19    17    18    1
    20    18    19    1
    21    18    20    1
    22     4     6   ar
    23     6     7    2
    24     6     8   ar
    25     8     9    1
    26     8    10   ar
    27    10    11    2
    28    10    12   ar
    29    12    31    1
    30    31    32    1
    31    32    33    1
    32    32    34    1
    33    30    24   ar
    34     5     1   ar
    35    20    15    1
    36    12     3   ar
    37    19    21    1
@<TRIPOS>MOLECULE
*****
 34 37 0 0 0
SMALL
GASTEIGER

@<TRIPOS>ATOM
      1 C          62.7437   88.7303   12.5533 C.ar    1  UNL1        0.0359
      2 S          63.1831   87.5409   13.3547 S.2     1  UNL1       -0.0718
      3 C          63.2378   86.3571   12.4351 C.ar    1  UNL1        0.0983
      4 C          62.8323   86.8149   11.0654 C.ar    1  UNL1        0.0830
      5 C          62.5269   88.2816   11.1385 C.ar    1  UNL1        0.0639
      6 C          62.7935   85.8370    9.9287 C.ar    1  UNL1        0.2663
      7 O          62.3880   86.2948    8.5590 O.2     1  UNL1       -0.2668
      8 N          63.1603   84.4013   10.1616 N.ar    1  UNL1       -0.2467
      9 C          63.1215   83.4234    9.0248 C.3     1  UNL1        0.1382
     10 C          63.5658   83.9435   11.5312 C.ar    1  UNL1        0.3342
     11 O          63.9326   82.5077   11.7641 O.2     1  UNL1       -0.2462
     12 N          63.6046   84.9214   12.6680 N.ar    1  UNL1       -0.2757
     13 C          62.0827   89.1477    9.9971 C.2     1  UNL1        0.2495
     14 O          62.7940   90.4374    9.7133 O.2     1  UNL1       -0.2699
     15 N          60.9272   88.7240    9.1396 N.am    1  UNL1       -0.2735
     16 C          60.3728   89.4819    7.9699 C.3     1  UNL1        0.0964
     17 C          59.2262   88.6943    7.4087 C.3     1  UNL1        0.0525
     18 C          59.0719   87.4496    8.2315 C.3     1  UNL1        0.1320
     19 O          58.0465   86.3753    8.0214 O.3     1  UNL1       -0.3827
     20 C          60.1232   87.4680    9.3013 C.3     1  UNL1        0.1228
     21 H          57.4875   86.6059    7.2630 H       1  UNL1        0.2104
     22 C          62.5543   90.1238   13.0751 C.3     1  UNL1        0.1413
     23 C          63.3020   90.1074   16.2516 C.3     1  UNL1        0.0719
     24 C          64.0457   90.8402   15.1746 C.ar    1  UNL1        0.1226
     25 N          65.2636   91.6940   15.3685 N.ar    1  UNL1       -0.2186
     26 C          65.6727   92.2292   14.0283 C.ar    1  UNL1        0.1661
     27 CL         66.8416   93.1295   13.7579 Cl      1  UNL1       -0.0588
     28 C          64.7076   91.7063   13.0061 C.ar    1  UNL1        0.1487
     29 CL         64.7419   91.9916   11.5339 Cl      1  UNL1       -0.0606
     30 N          63.7020   90.8477   13.7145 N.ar    1  UNL1       -0.3007
     31 C          64.0102   84.4636   14.0377 C.3     1  UNL1        0.1109
     32 C          62.9694   83.9926   15.0098 C.3     1  UNL1        0.0228
     33 C          62.3127   82.6579   14.8173 C.3     1  UNL1        0.0020
     34 C          62.5854   84.8564   16.1744 C.3     1  UNL1        0.0020
@<TRIPOS>BOND
     1    23    24    1
     2    24    25   ar
     3    25    26   ar
     4    26    27    1
     5    26    28   ar
     6    28    29    1
     7    28    30   ar
     8    30    22    1
     9    22     1    1
    10     1     2   ar
    11     2     3   ar
    12     3     4   ar
    13     4     5   ar
    14     5    13    1
    15    13    14    2
    16    13    15   am
    17    15    16    1
    18    16    17    1
    19    17    18    1
    20    18    19    1
    21    18    20    1
    22     4     6   ar
    23     6     7    2
    24     6     8   ar
    25     8     9    1
    26     8    10   ar
    27    10    11    2
    28    10    12   ar
    29    12    31    1
    30    31    32    1
    31    32    33    1
    32    32    34    1
    33    30    24   ar
    34     5     1   ar
    35    20    15    1
    36    12     3   ar
    37    19    21    1
@<TRIPOS>MOLECULE
*****
 34 37 0 0 0
SMALL
GASTEIGER

@<TRIPOS>ATOM
      1 C          63.1995   85.3650   12.0271 C.ar    1  UNL1        0.0359
      2 S          62.4775   85.1502   10.7299 S.2     1  UNL1       -0.0718
      3 C          61.7236   86.4057   10.4056 C.ar    1  UNL1        0.0983
      4 C          61.9796   87.3965   11.5023 C.ar    1  UNL1        0.0830
      5 C          62.8918   86.7534   12.5044 C.ar    1  UNL1        0.0639
      6 C          61.3491   88.7564   11.4467 C.ar    1  UNL1        0.2663
      7 O          61.6051   89.7473   12.5434 O.2     1  UNL1       -0.2668
      8 N          60.4625   89.1255   10.2945 N.ar    1  UNL1       -0.2467
      9 C          59.8319   90.4854   10.2389 C.3     1  UNL1        0.1382
     10 C          60.2065   88.1347    9.1979 C.ar    1  UNL1        0.3342
     11 O          59.3198   88.5038    8.0455 O.2     1  UNL1       -0.2462
     12 N          60.8370   86.7747    9.2534 N.ar    1  UNL1       -0.2757
     13 C          63.4060   87.3872   13.7629 C.2     1  UNL1        0.2495
     14 O          63.3711   86.6255   15.0547 O.2     1  UNL1       -0.2699
     15 N          63.9552   88.7827   13.7297 N.am    1  UNL1       -0.2735
     16 C          64.5018   89.5432   14.9014 C.3     1  UNL1        0.0964
     17 C          64.9386   90.8931   14.4148 C.3     1  UNL1        0.0525
     18 C          64.6619   90.9670   12.9423 C.3     1  UNL1        0.1320
     19 O          64.9435   92.1393   12.0501 O.3     1  UNL1       -0.3827
     20 C          64.0541   89.6626   12.5190 C.3     1  UNL1        0.1228
     21 H          65.3375   92.8556   12.5721 H       1  UNL1        0.2104
     22 C          64.0755   84.3668   12.7244 C.3     1  UNL1        0.1413
     23 C          62.9063   83.5104   15.6483 C.3     1  UNL1        0.0719
     24 C          62.9920   82.6263   14.4396 C.ar    1  UNL1        0.1226
     25 N          62.5554   81.1933   14.3627 N.ar    1  UNL1       -0.2186
     26 C          62.8229   80.7014   12.9712 C.ar    1  UNL1        0.1661
     27 CL         62.5384   79.3225   12.4536 Cl      1  UNL1       -0.0588
     28 C          63.4249   81.8302   12.1881 C.ar    1  UNL1        0.1487
     29 CL         63.8481   81.7785   10.7500 Cl      1  UNL1       -0.0606
     30 N          63.5294   83.0200   13.0956 N.ar    1  UNL1       -0.3007
     31 C          60.5809   85.7840    8.1566 C.3     1  UNL1        0.1109
     32 C          61.7258   85.2412    7.3539 C.3     1  UNL1        0.0228
     33 C          63.1360   85.4594    7.8163 C.3     1  UNL1        0.0020
     34 C          61.4607   84.4802    6.0887 C.3     1  UNL1        0.0020
@<TRIPOS>BOND
     1    23    24    1
     2    24    25   ar
     3    25    26   ar
     4    26    27    1
     5    26    28   ar
     6    28    29    1
     7    28    30   ar
     8    30    22    1
     9    22     1    1
    10     1     2   ar
    11     2     3   ar
    12     3     4   ar
    13     4     5   ar
    14     5    13    1
    15    13    14    2
    16    13    15   am
    17    15    16    1
    18    16    17    1
    19    17    18    1
    20    18    19    1
    21    18    20    1
    22     4     6   ar
    23     6     7    2
    24     6     8   ar
    25     8     9    1
    26     8    10   ar
    27    10    11    2
    28    10    12   ar
    29    12    31    1
    30    31    32    1
    31    32    33    1
    32    32    34    1
    33    30    24   ar
    34     5     1   ar
    35    20    15    1
    36    12     3   ar
    37    19    21    1
@<TRIPOS>MOLECULE
*****
 34 37 0 0 0
SMALL
GASTEIGER

@<TRIPOS>ATOM
      1 C          63.6134   89.6805   15.0713 C.ar    1  UNL1        0.0359
      2 S          62.9618   89.2394   13.7943 S.2     1  UNL1       -0.0718
      3 C          63.3413   90.2144   12.7194 C.ar    1  UNL1        0.0983
      4 C          64.2275   91.2581   13.3322 C.ar    1  UNL1        0.0830
      5 C          64.3957   90.9281   14.7857 C.ar    1  UNL1        0.0639
      6 C          64.7668   92.3741   12.4874 C.ar    1  UNL1        0.2663
      7 O          65.6530   93.4177   13.1001 O.2     1  UNL1       -0.2668
      8 N          64.4199   92.4464   11.0298 N.ar    1  UNL1       -0.2467
      9 C          64.9593   93.5625   10.1851 C.3     1  UNL1        0.1382
     10 C          63.5338   91.4028   10.4171 C.ar    1  UNL1        0.3342
     11 O          63.1869   91.4752    8.9595 O.2     1  UNL1       -0.2462
     12 N          62.9944   90.2868   11.2619 N.ar    1  UNL1       -0.2757
     13 C          65.2042   91.7086   15.7793 C.2     1  UNL1        0.2495
     14 O          64.5685   92.1921   17.0489 O.2     1  UNL1       -0.2699
     15 N          66.6483   92.0056   15.5031 N.am    1  UNL1       -0.2735
     16 C          67.5779   92.7706   16.3980 C.3     1  UNL1        0.0964
     17 C          68.9205   92.8276   15.7316 C.3     1  UNL1        0.0525
     18 C          68.8207   92.0978   14.4249 C.3     1  UNL1        0.1320
     19 O          69.9304   91.9091   13.4335 O.3     1  UNL1       -0.3827
     20 C          67.4165   91.5898   14.2837 C.3     1  UNL1        0.1228
     21 H          70.7363   92.3349   13.7654 H       1  UNL1        0.2104
     22 C          63.5023   88.9944   16.4006 C.3     1  UNL1        0.1413
     23 C          62.3899   87.2298   18.9102 C.3     1  UNL1        0.0719
     24 C          62.9349   86.6859   17.6230 C.ar    1  UNL1        0.1226
     25 N          63.0644   85.2355   17.2632 N.ar    1  UNL1       -0.2186
     26 C          63.6557   85.1501   15.8874 C.ar    1  UNL1        0.1661
     27 CL         63.9579   83.8885   15.1344 Cl      1  UNL1       -0.0588
     28 C          63.8917   86.5477   15.3968 C.ar    1  UNL1        0.1487
     29 CL         64.4714   86.9292   14.0670 Cl      1  UNL1       -0.0606
     30 N          63.4463   87.4970   16.4694 N.ar    1  UNL1       -0.3007
     31 C          62.1082   89.2431   10.6491 C.3     1  UNL1        0.1109
     32 C          60.7006   89.5877   10.2620 C.3     1  UNL1        0.0228
     33 C          59.8447   90.3979   11.1898 C.3     1  UNL1        0.0020
     34 C          60.1489   89.1222    8.9471 C.3     1  UNL1        0.0020
@<TRIPOS>BOND
     1    23    24    1
     2    24    25   ar
     3    25    26   ar
     4    26    27    1
     5    26    28   ar
     6    28    29    1
     7    28    30   ar
     8    30    22    1
     9    22     1    1
    10     1     2   ar
    11     2     3   ar
    12     3     4   ar
    13     4     5   ar
    14     5    13    1
    15    13    14    2
    16    13    15   am
    17    15    16    1
    18    16    17    1
    19    17    18    1
    20    18    19    1
    21    18    20    1
    22     4     6   ar
    23     6     7    2
    24     6     8   ar
    25     8     9    1
    26     8    10   ar
    27    10    11    2
    28    10    12   ar
    29    12    31    1
    30    31    32    1
    31    32    33    1
    32    32    34    1
    33    30    24   ar
    34     5     1   ar
    35    20    15    1
    36    12     3   ar
    37    19    21    1
