@<TRIPOS>MOLECULE
*****
 18 19 0 0 0
SMALL
GASTEIGER

@<TRIPOS>ATOM
      1 O          62.4027   85.3613   13.2027 O.2     1  UNL1       -0.2681
      2 C          63.1088   84.4993   14.2069 C.2     1  UNL1        0.2683
      3 N          63.7910   85.1268   15.3861 N.am    1  UNL1       -0.2784
      4 H          64.2544   84.5610   16.0452 H       1  UNL1        0.1552
      5 C          63.7672   86.6164   15.5612 C.ar    1  UNL1        0.0613
      6 C          64.3801   87.5040   14.5189 C.ar    1  UNL1        0.0164
      7 C          64.3563   88.9935   14.6940 C.ar    1  UNL1        0.0127
      8 C          63.7196   89.5954   15.9115 C.ar    1  UNL1        0.0586
      9 CL         63.6957   91.0851   16.0866 Cl      1  UNL1       -0.0822
     10 C          63.1066   88.7079   16.9538 C.ar    1  UNL1        0.0240
     11 C          63.1305   87.2184   16.7787 C.ar    1  UNL1        0.0719
     12 CL         62.5175   86.3307   17.8211 Cl      1  UNL1       -0.0809
     13 C          63.1326   83.0097   14.0318 C.ar    1  UNL1        0.1498
     14 C          63.8467   82.2610   12.9458 C.ar    1  UNL1        0.1468
     15 N          63.6020   80.7958   13.1547 N.ar    1  UNL1       -0.1272
     16 N          62.7365   80.6391   14.3699 N.ar    1  UNL1       -0.0671
     17 N          62.4464   82.0074   14.9119 N.ar    1  UNL1       -0.2520
     18 H          61.9014   82.2117   15.7059 H       1  UNL1        0.1908
@<TRIPOS>BOND
     1     1     2    2
     2     2     3   am
     3     3     5    1
     4     5     6   ar
     5     6     7   ar
     6     7     8   ar
     7     8     9    1
     8     8    10   ar
     9    10    11   ar
    10    11    12    1
    11     2    13    1
    12    13    14   ar
    13    14    15   ar
    14    15    16   ar
    15    16    17   ar
    16    11     5   ar
    17    17    13   ar
    18     3     4    1
    19    17    18    1
@<TRIPOS>MOLECULE
*****
 18 19 0 0 0
SMALL
GASTEIGER

@<TRIPOS>ATOM
      1 O          63.4250   90.4493   10.6596 O.2     1  UNL1       -0.2681
      2 C          63.0738   89.9933   12.0447 C.2     1  UNL1        0.2683
      3 N          62.1578   88.8215   12.2389 N.am    1  UNL1       -0.2784
      4 H          61.9273   88.5222   13.1480 H       1  UNL1        0.1552
      5 C          61.5931   88.1056   11.0478 C.ar    1  UNL1        0.0613
      6 C          62.1502   86.7741   10.6394 C.ar    1  UNL1        0.0164
      7 C          61.5854   86.0583    9.4484 C.ar    1  UNL1        0.0127
      8 C          60.4636   86.6739    8.6658 C.ar    1  UNL1        0.0586
      9 CL         59.8988   85.9580    7.4747 Cl      1  UNL1       -0.0822
     10 C          59.9065   88.0053    9.0742 C.ar    1  UNL1        0.0240
     11 C          60.4712   88.7212   10.2652 C.ar    1  UNL1        0.0719
     12 CL         59.9142   90.0527   10.6736 Cl      1  UNL1       -0.0809
     13 C          63.6386   90.7093   13.2358 C.ar    1  UNL1        0.1498
     14 C          64.8537   91.5888   13.2413 C.ar    1  UNL1        0.1468
     15 N          65.0535   92.0944   14.6394 N.ar    1  UNL1       -0.1272
     16 N          63.9618   91.5274   15.4978 N.ar    1  UNL1       -0.0671
     17 N          63.0874   90.6713   14.6304 N.ar    1  UNL1       -0.2520
     18 H          62.2915   90.1722   14.9246 H       1  UNL1        0.1908
@<TRIPOS>BOND
     1     1     2    2
     2     2     3   am
     3     3     5    1
     4     5     6   ar
     5     6     7   ar
     6     7     8   ar
     7     8     9    1
     8     8    10   ar
     9    10    11   ar
    10    11    12    1
    11     2    13    1
    12    13    14   ar
    13    14    15   ar
    14    15    16   ar
    15    16    17   ar
    16    11     5   ar
    17    17    13   ar
    18     3     4    1
    19    17    18    1
@<TRIPOS>MOLECULE
*****
 18 19 0 0 0
SMALL
GASTEIGER

@<TRIPOS>ATOM
      1 O          63.4154   90.4385   10.6420 O.2     1  UNL1       -0.2681
      2 C          63.0100   90.0241   12.0255 C.2     1  UNL1        0.2683
      3 N          62.0112   88.9213   12.2157 N.am    1  UNL1       -0.2784
      4 H          61.7451   88.6494   13.1237 H       1  UNL1        0.1552
      5 C          61.4178   88.2328   11.0224 C.ar    1  UNL1        0.0613
      6 C          60.5457   88.9981   10.0717 C.ar    1  UNL1        0.0164
      7 C          59.9524   88.3096    8.8785 C.ar    1  UNL1        0.0127
      8 C          60.2310   86.8558    8.6360 C.ar    1  UNL1        0.0586
      9 CL         59.6376   86.1673    7.4427 Cl      1  UNL1       -0.0822
     10 C          61.1031   86.0905    9.5866 C.ar    1  UNL1        0.0240
     11 C          61.6964   86.7790   10.7798 C.ar    1  UNL1        0.0719
     12 CL         62.5685   86.0137   11.7306 Cl      1  UNL1       -0.0809
     13 C          63.6034   90.7126   13.2188 C.ar    1  UNL1        0.1498
     14 C          64.8309   91.5748   13.2191 C.ar    1  UNL1        0.1468
     15 N          65.0597   92.0549   14.6218 N.ar    1  UNL1       -0.1272
     16 N          63.9736   91.4894   15.4882 N.ar    1  UNL1       -0.0671
     17 N          63.0736   90.6598   14.6211 N.ar    1  UNL1       -0.2520
     18 H          62.2753   90.1672   14.9199 H       1  UNL1        0.1908
@<TRIPOS>BOND
     1     1     2    2
     2     2     3   am
     3     3     5    1
     4     5     6   ar
     5     6     7   ar
     6     7     8   ar
     7     8     9    1
     8     8    10   ar
     9    10    11   ar
    10    11    12    1
    11     2    13    1
    12    13    14   ar
    13    14    15   ar
    14    15    16   ar
    15    16    17   ar
    16    11     5   ar
    17    17    13   ar
    18     3     4    1
    19    17    18    1
@<TRIPOS>MOLECULE
*****
 18 19 0 0 0
SMALL
GASTEIGER

@<TRIPOS>ATOM
      1 O          63.1510   87.0956   16.5129 O.2     1  UNL1       -0.2681
      2 C          63.6690   87.9002   15.3577 C.2     1  UNL1        0.2683
      3 N          64.0321   87.2186   14.0719 N.am    1  UNL1       -0.2784
      4 H          64.3721   87.7467   13.3138 H       1  UNL1        0.1552
      5 C          63.8772   85.7323   13.9411 C.ar    1  UNL1        0.0613
      6 C          64.4821   84.8219   14.9683 C.ar    1  UNL1        0.0164
      7 C          64.3272   83.3357   14.8375 C.ar    1  UNL1        0.0127
      8 C          63.5674   82.7599   13.6794 C.ar    1  UNL1        0.0586
      9 CL         63.4125   81.2736   13.5486 Cl      1  UNL1       -0.0822
     10 C          62.9626   83.6703   12.6521 C.ar    1  UNL1        0.0240
     11 C          63.1175   85.1565   12.7830 C.ar    1  UNL1        0.0719
     12 CL         62.5126   86.0669   11.7557 Cl      1  UNL1       -0.0809
     13 C          63.8239   89.3865   15.4886 C.ar    1  UNL1        0.1498
     14 C          64.6103   90.2750   14.5709 C.ar    1  UNL1        0.1468
     15 N          64.4920   91.6829   15.0752 N.ar    1  UNL1       -0.1272
     16 N          63.6325   91.6642   16.3044 N.ar    1  UNL1       -0.0671
     17 N          63.2196   90.2450   16.5599 N.ar    1  UNL1       -0.2520
     18 H          62.6517   89.9320   17.3006 H       1  UNL1        0.1908
@<TRIPOS>BOND
     1     1     2    2
     2     2     3   am
     3     3     5    1
     4     5     6   ar
     5     6     7   ar
     6     7     8   ar
     7     8     9    1
     8     8    10   ar
     9    10    11   ar
    10    11    12    1
    11     2    13    1
    12    13    14   ar
    13    14    15   ar
    14    15    16   ar
    15    16    17   ar
    16    11     5   ar
    17    17    13   ar
    18     3     4    1
    19    17    18    1
@<TRIPOS>MOLECULE
*****
 18 19 0 0 0
SMALL
GASTEIGER

@<TRIPOS>ATOM
      1 O          63.6561   88.0365   13.2377 O.2     1  UNL1       -0.2681
      2 C          63.9499   88.3254   14.6800 C.2     1  UNL1        0.2683
      3 N          64.0945   87.1962   15.6567 N.am    1  UNL1       -0.2784
      4 H          64.2873   87.3859   16.6034 H       1  UNL1        0.1552
      5 C          63.9453   85.7781   15.1912 C.ar    1  UNL1        0.0613
      6 C          64.8745   85.2290   14.1494 C.ar    1  UNL1        0.0164
      7 C          64.7253   83.8110   13.6839 C.ar    1  UNL1        0.0127
      8 C          63.6470   82.9419   14.2602 C.ar    1  UNL1        0.0586
      9 CL         63.4978   81.5238   13.7946 Cl      1  UNL1       -0.0822
     10 C          62.7178   83.4910   15.3019 C.ar    1  UNL1        0.0240
     11 C          62.8670   84.9090   15.7674 C.ar    1  UNL1        0.0719
     12 CL         61.9379   85.4582   16.8092 Cl      1  UNL1       -0.0809
     13 C          64.0990   89.7436   15.1456 C.ar    1  UNL1        0.1498
     14 C          65.0765   90.7484   14.6120 C.ar    1  UNL1        0.1468
     15 N          64.8785   92.0317   15.3631 N.ar    1  UNL1       -0.1272
     16 N          63.7787   91.8199   16.3608 N.ar    1  UNL1       -0.0671
     17 N          63.2969   90.4057   16.2264 N.ar    1  UNL1       -0.2520
     18 H          62.5802   89.9858   16.7548 H       1  UNL1        0.1908
@<TRIPOS>BOND
     1     1     2    2
     2     2     3   am
     3     3     5    1
     4     5     6   ar
     5     6     7   ar
     6     7     8   ar
     7     8     9    1
     8     8    10   ar
     9    10    11   ar
    10    11    12    1
    11     2    13    1
    12    13    14   ar
    13    14    15   ar
    14    15    16   ar
    15    16    17   ar
    16    11     5   ar
    17    17    13   ar
    18     3     4    1
    19    17    18    1
@<TRIPOS>MOLECULE
*****
 18 19 0 0 0
SMALL
GASTEIGER

@<TRIPOS>ATOM
      1 O          61.3274   85.6616   10.6984 O.2     1  UNL1       -0.2681
      2 C          62.3035   86.3810   11.5814 C.2     1  UNL1        0.2683
      3 N          63.0651   85.6251   12.6294 N.am    1  UNL1       -0.2784
      4 H          63.7058   86.0973   13.2089 H       1  UNL1        0.1552
      5 C          62.8506   84.1497   12.7946 C.ar    1  UNL1        0.0613
      6 C          63.0569   83.2268   11.6303 C.ar    1  UNL1        0.0164
      7 C          62.8424   81.7515   11.7955 C.ar    1  UNL1        0.0127
      8 C          62.4216   81.1990   13.1251 C.ar    1  UNL1        0.0586
      9 CL         62.2071   79.7236   13.2903 Cl      1  UNL1       -0.0822
     10 C          62.2154   82.1219   14.2894 C.ar    1  UNL1        0.0240
     11 C          62.4299   83.5972   14.1242 C.ar    1  UNL1        0.0719
     12 CL         62.2236   84.5202   15.2886 Cl      1  UNL1       -0.0809
     13 C          62.5180   87.8564   11.4162 C.ar    1  UNL1        0.1498
     14 C          62.1950   88.6628   10.1933 C.ar    1  UNL1        0.1468
     15 N          62.5705   90.0892   10.4662 N.ar    1  UNL1       -0.1272
     16 N          63.1256   90.1643   11.8577 N.ar    1  UNL1       -0.0671
     17 N          63.0931   88.7844   12.4448 N.ar    1  UNL1       -0.2520
     18 H          63.3961   88.5320   13.3469 H       1  UNL1        0.1908
@<TRIPOS>BOND
     1     1     2    2
     2     2     3   am
     3     3     5    1
     4     5     6   ar
     5     6     7   ar
     6     7     8   ar
     7     8     9    1
     8     8    10   ar
     9    10    11   ar
    10    11    12    1
    11     2    13    1
    12    13    14   ar
    13    14    15   ar
    14    15    16   ar
    15    16    17   ar
    16    11     5   ar
    17    17    13   ar
    18     3     4    1
    19    17    18    1
@<TRIPOS>MOLECULE
*****
 18 19 0 0 0
SMALL
GASTEIGER

@<TRIPOS>ATOM
      1 O          64.8030   84.2725   14.9254 O.2     1  UNL1       -0.2681
      2 C          63.4431   84.8678   15.1406 C.2     1  UNL1        0.2683
      3 N          62.2390   84.2355   14.5080 N.am    1  UNL1       -0.2784
      4 H          61.3464   84.6262   14.6492 H       1  UNL1        0.1552
      5 C          62.3947   83.0079   13.6601 C.ar    1  UNL1        0.0613
      6 C          62.1477   81.6517   14.2514 C.ar    1  UNL1        0.0164
      7 C          62.3034   80.4242   13.4035 C.ar    1  UNL1        0.0127
      8 C          62.7062   80.5529   11.9644 C.ar    1  UNL1        0.0586
      9 CL         62.8619   79.3253   11.1165 Cl      1  UNL1       -0.0822
     10 C          62.9532   81.9091   11.3731 C.ar    1  UNL1        0.0240
     11 C          62.7974   83.1366   12.2209 C.ar    1  UNL1        0.0719
     12 CL         63.0444   84.4929   11.6296 Cl      1  UNL1       -0.0809
     13 C          63.2874   86.0954   15.9885 C.ar    1  UNL1        0.1498
     14 C          62.7975   86.1315   17.4058 C.ar    1  UNL1        0.1468
     15 N          62.8015   87.5608   17.8612 N.ar    1  UNL1       -0.1272
     16 N          63.2938   88.4078   16.7253 N.ar    1  UNL1       -0.0671
     17 N          63.5941   87.5021   15.5679 N.ar    1  UNL1       -0.2520
     18 H          63.9329   87.7819   14.6870 H       1  UNL1        0.1908
@<TRIPOS>BOND
     1     1     2    2
     2     2     3   am
     3     3     5    1
     4     5     6   ar
     5     6     7   ar
     6     7     8   ar
     7     8     9    1
     8     8    10   ar
     9    10    11   ar
    10    11    12    1
    11     2    13    1
    12    13    14   ar
    13    14    15   ar
    14    15    16   ar
    15    16    17   ar
    16    11     5   ar
    17    17    13   ar
    18     3     4    1
    19    17    18    1
@<TRIPOS>MOLECULE
*****
 18 19 0 0 0
SMALL
GASTEIGER

@<TRIPOS>ATOM
      1 O          62.9410   85.0315   10.0095 O.2     1  UNL1       -0.2681
      2 C          62.3745   85.3310   11.3657 C.2     1  UNL1        0.2683
      3 N          61.3030   86.3696   11.5183 N.am    1  UNL1       -0.2784
      4 H          60.9312   86.5661   12.4084 H       1  UNL1        0.1552
      5 C          60.7981   87.1088   10.3146 C.ar    1  UNL1        0.0613
      6 C          60.3476   86.3489    9.1023 C.ar    1  UNL1        0.0164
      7 C          59.8427   87.0881    7.8988 C.ar    1  UNL1        0.0127
      8 C          59.7884   88.5871    7.9074 C.ar    1  UNL1        0.0586
      9 CL         59.2835   89.3263    6.7038 Cl      1  UNL1       -0.0822
     10 C          60.2389   89.3469    9.1197 C.ar    1  UNL1        0.0240
     11 C          60.7438   88.6077   10.3233 C.ar    1  UNL1        0.0719
     12 CL         61.1943   89.3676   11.5357 Cl      1  UNL1       -0.0809
     13 C          62.8794   84.5918   12.5694 C.ar    1  UNL1        0.1498
     14 C          63.9514   83.5427   12.5741 C.ar    1  UNL1        0.1468
     15 N          64.1355   83.0744   13.9873 N.ar    1  UNL1       -0.1272
     16 N          63.1772   83.8343   14.8559 N.ar    1  UNL1       -0.0671
     17 N          62.4009   84.7720   13.9796 N.ar    1  UNL1       -0.2520
     18 H          61.7003   85.3962   14.2776 H       1  UNL1        0.1908
@<TRIPOS>BOND
     1     1     2    2
     2     2     3   am
     3     3     5    1
     4     5     6   ar
     5     6     7   ar
     6     7     8   ar
     7     8     9    1
     8     8    10   ar
     9    10    11   ar
    10    11    12    1
    11     2    13    1
    12    13    14   ar
    13    14    15   ar
    14    15    16   ar
    15    16    17   ar
    16    11     5   ar
    17    17    13   ar
    18     3     4    1
    19    17    18    1
@<TRIPOS>MOLECULE
*****
 18 19 0 0 0
SMALL
GASTEIGER

@<TRIPOS>ATOM
      1 O          60.0874   88.3734   11.5708 O.2     1  UNL1       -0.2681
      2 C          60.9319   87.9849   10.3935 C.2     1  UNL1        0.2683
      3 N          62.3962   88.3100   10.3810 N.am    1  UNL1       -0.2784
      4 H          62.9504   88.0550    9.6083 H       1  UNL1        0.1552
      5 C          63.0160   89.0237   11.5457 C.ar    1  UNL1        0.0613
      6 C          63.4135   88.2551   12.7710 C.ar    1  UNL1        0.0164
      7 C          64.0333   88.9688   13.9356 C.ar    1  UNL1        0.0127
      8 C          64.2557   90.4510   13.8750 C.ar    1  UNL1        0.0586
      9 CL         64.8755   91.1646   15.0398 Cl      1  UNL1       -0.0822
     10 C          63.8581   91.2195   12.6498 C.ar    1  UNL1        0.0240
     11 C          63.2383   90.5059   11.4851 C.ar    1  UNL1        0.0719
     12 CL         62.8408   91.2744   10.2598 Cl      1  UNL1       -0.0809
     13 C          60.3120   87.2713    9.2288 C.ar    1  UNL1        0.1498
     14 C          60.9317   86.1475    8.4521 C.ar    1  UNL1        0.1468
     15 N          59.9664   85.7378    7.3795 N.ar    1  UNL1       -0.1272
     16 N          58.7501   86.6084    7.4934 N.ar    1  UNL1       -0.0671
     17 N          58.9638   87.5561    8.6362 N.ar    1  UNL1       -0.2520
     18 H          58.3304   88.2443    8.9435 H       1  UNL1        0.1908
@<TRIPOS>BOND
     1     1     2    2
     2     2     3   am
     3     3     5    1
     4     5     6   ar
     5     6     7   ar
     6     7     8   ar
     7     8     9    1
     8     8    10   ar
     9    10    11   ar
    10    11    12    1
    11     2    13    1
    12    13    14   ar
    13    14    15   ar
    14    15    16   ar
    15    16    17   ar
    16    11     5   ar
    17    17    13   ar
    18     3     4    1
    19    17    18    1
