@<TRIPOS>MOLECULE
*****
 27 30 0 0 0
SMALL
GASTEIGER

@<TRIPOS>ATOM
      1 C          65.5617   93.1598   11.8437 C.3     1  UNL1        0.0634
      2 C          66.1430   92.5697   13.0943 C.3     1  UNL1        0.0292
      3 C          65.6342   91.2566   13.6107 C.3     1  UNL1        0.0954
      4 N          64.5442   90.5334   12.8766 N.am    1  UNL1       -0.2642
      5 C          64.0355   89.2202   13.3930 C.2     1  UNL1        0.3039
      6 O          62.9454   88.4971   12.6589 O.2     1  UNL1       -0.2526
      7 N          64.6168   88.6301   14.6436 N.am    1  UNL1       -0.2901
      8 C          63.9629   91.1235   11.6260 C.3     1  UNL1        0.0954
      9 C          64.4716   92.4367   11.1096 C.3     1  UNL1        0.0292
     10 H          65.3322   89.1048   15.1254 H       1  UNL1        0.1509
     11 C          67.4061   93.5913    9.1864 C.3     1  UNL1        0.0390
     12 C          66.9182   94.6713   10.1058 C.ar    1  UNL1        0.0669
     13 C          67.1924   96.1393    9.9653 C.ar    1  UNL1        0.2563
     14 O          68.0027   96.7850    8.8806 O.3     1  UNL1       -0.4902
     15 N          66.5140   96.8483   11.0999 N.ar    1  UNL1       -0.0397
     16 O          65.8206   95.8185   11.9416 O.2     1  UNL1       -0.3552
     17 C          66.0704   94.4730   11.3273 C.ar    1  UNL1        0.1532
     18 H          68.3908   96.2589    8.2095 H       1  UNL1        0.2938
     19 C          64.1080   87.3169   15.1600 C.3     1  UNL1        0.0774
     20 C          63.6292   86.4666   16.2992 C.3     1  UNL1        0.0259
     21 C          63.7057   85.8927   14.9154 C.3     1  UNL1        0.0420
     22 C          63.5176   84.7392   13.9753 C.ar    1  UNL1       -0.0208
     23 C          63.8779   83.3499   14.4112 C.ar    1  UNL1       -0.0042
     24 C          63.6898   82.1963   13.4711 C.ar    1  UNL1       -0.0003
     25 C          63.1413   82.4320   12.0950 C.ar    1  UNL1       -0.0000
     26 C          62.7810   83.8213   11.6590 C.ar    1  UNL1       -0.0003
     27 C          62.9691   84.9749   12.5993 C.ar    1  UNL1       -0.0042
@<TRIPOS>BOND
     1    11    12    1
     2    12    13   ar
     3    13    14    1
     4    13    15   ar
     5    15    16   ar
     6    16    17   ar
     7    17     1    1
     8     1     2    1
     9     2     3    1
    10     3     4    1
    11     4     5   am
    12     5     6    2
    13     5     7   am
    14     7    19    1
    15    19    20    1
    16    20    21    1
    17    21    22    1
    18    22    23   ar
    19    23    24   ar
    20    24    25   ar
    21    25    26   ar
    22    26    27   ar
    23     4     8    1
    24     8     9    1
    25    17    12   ar
    26     9     1    1
    27    21    19    1
    28    27    22   ar
    29    14    18    1
    30     7    10    1
@<TRIPOS>MOLECULE
*****
 27 30 0 0 0
SMALL
GASTEIGER

@<TRIPOS>ATOM
      1 C          63.1353   84.8669   13.4922 C.3     1  UNL1        0.0634
      2 C          64.0122   85.4375   14.5670 C.3     1  UNL1        0.0292
      3 C          64.3812   86.8911   14.5408 C.3     1  UNL1        0.0954
      4 N          63.8734   87.7741   13.4396 N.am    1  UNL1       -0.2642
      5 C          64.2425   89.2278   13.4134 C.2     1  UNL1        0.3039
      6 O          63.7347   90.1108   12.3123 O.2     1  UNL1       -0.2526
      7 N          65.1194   89.7985   14.4883 N.am    1  UNL1       -0.2901
      8 C          62.9965   87.2035   12.3648 C.3     1  UNL1        0.0954
      9 C          62.6274   85.7499   12.3911 C.3     1  UNL1        0.0292
     10 H          65.4527   89.2189   15.2110 H       1  UNL1        0.1509
     11 C          63.9034   82.6515   11.2224 C.3     1  UNL1        0.0390
     12 C          63.1192   82.3949   12.4751 C.ar    1  UNL1        0.0669
     13 C          62.5504   81.0750   12.9044 C.ar    1  UNL1        0.2563
     14 O          62.6660   79.7800   12.1565 O.3     1  UNL1       -0.4902
     15 N          61.8458   81.2775   14.2131 N.ar    1  UNL1       -0.0397
     16 O          61.9791   82.7226   14.5925 O.2     1  UNL1       -0.3552
     17 C          62.7661   83.4132   13.5184 C.ar    1  UNL1        0.1532
     18 H          63.1278   79.7490   11.3418 H       1  UNL1        0.2938
     19 C          65.4885   91.2521   14.4621 C.3     1  UNL1        0.0774
     20 C          65.6822   92.5563   15.1773 C.3     1  UNL1        0.0259
     21 C          65.9341   92.4658   13.7014 C.3     1  UNL1        0.0420
     22 C          66.3368   93.1141   12.4102 C.ar    1  UNL1       -0.0208
     23 C          66.9116   92.2836   11.3012 C.ar    1  UNL1       -0.0042
     24 C          67.3143   92.9320   10.0099 C.ar    1  UNL1       -0.0003
     25 C          67.1423   94.4110    9.8276 C.ar    1  UNL1       -0.0000
     26 C          66.5675   95.2415   10.9366 C.ar    1  UNL1       -0.0003
     27 C          66.1648   94.5930   12.2279 C.ar    1  UNL1       -0.0042
@<TRIPOS>BOND
     1    11    12    1
     2    12    13   ar
     3    13    14    1
     4    13    15   ar
     5    15    16   ar
     6    16    17   ar
     7    17     1    1
     8     1     2    1
     9     2     3    1
    10     3     4    1
    11     4     5   am
    12     5     6    2
    13     5     7   am
    14     7    19    1
    15    19    20    1
    16    20    21    1
    17    21    22    1
    18    22    23   ar
    19    23    24   ar
    20    24    25   ar
    21    25    26   ar
    22    26    27   ar
    23     4     8    1
    24     8     9    1
    25    17    12   ar
    26     9     1    1
    27    21    19    1
    28    27    22   ar
    29    14    18    1
    30     7    10    1
@<TRIPOS>MOLECULE
*****
 27 30 0 0 0
SMALL
GASTEIGER

@<TRIPOS>ATOM
      1 C          65.0543   91.6173   13.0398 C.3     1  UNL1        0.0634
      2 C          65.4106   90.7709   14.2258 C.3     1  UNL1        0.0292
      3 C          64.8777   89.3732   14.3369 C.3     1  UNL1        0.0954
      4 N          63.9886   88.8219   13.2620 N.am    1  UNL1       -0.2642
      5 C          63.4557   87.4241   13.3731 C.2     1  UNL1        0.3039
      6 O          62.5665   86.8728   12.2982 O.2     1  UNL1       -0.2526
      7 N          63.8120   86.5777   14.5591 N.am    1  UNL1       -0.2901
      8 C          63.6322   89.6683   12.0760 C.3     1  UNL1        0.0954
      9 C          64.1651   91.0660   11.9649 C.3     1  UNL1        0.0292
     10 H          64.3956   86.9395   15.2646 H       1  UNL1        0.1509
     11 C          65.5825   93.2541   10.2663 C.3     1  UNL1        0.0390
     12 C          65.8299   93.7674   11.6539 C.ar    1  UNL1        0.0669
     13 C          66.3636   95.1232   12.0102 C.ar    1  UNL1        0.2563
     14 O          66.7435   96.2037   11.0415 O.3     1  UNL1       -0.4902
     15 N          66.4507   95.2089   13.5052 N.ar    1  UNL1       -0.0397
     16 O          65.9709   93.9060   14.0728 O.2     1  UNL1       -0.3552
     17 C          65.5872   93.0151   12.9286 C.ar    1  UNL1        0.1532
     18 H          66.6546   96.0592   10.1200 H       1  UNL1        0.2938
     19 C          63.2791   85.1799   14.6702 C.3     1  UNL1        0.0774
     20 C          62.6061   84.1062   15.4729 C.3     1  UNL1        0.0259
     21 C          63.0292   83.8326   14.0601 C.3     1  UNL1        0.0420
     22 C          63.1291   82.8967   12.8921 C.ar    1  UNL1       -0.0208
     23 C          62.6332   81.4866   13.0164 C.ar    1  UNL1       -0.0042
     24 C          62.7331   80.5507   11.8484 C.ar    1  UNL1       -0.0003
     25 C          63.3290   81.0251   10.5561 C.ar    1  UNL1       -0.0000
     26 C          63.8250   82.4353   10.4318 C.ar    1  UNL1       -0.0003
     27 C          63.7250   83.3711   11.5999 C.ar    1  UNL1       -0.0042
@<TRIPOS>BOND
     1    11    12    1
     2    12    13   ar
     3    13    14    1
     4    13    15   ar
     5    15    16   ar
     6    16    17   ar
     7    17     1    1
     8     1     2    1
     9     2     3    1
    10     3     4    1
    11     4     5   am
    12     5     6    2
    13     5     7   am
    14     7    19    1
    15    19    20    1
    16    20    21    1
    17    21    22    1
    18    22    23   ar
    19    23    24   ar
    20    24    25   ar
    21    25    26   ar
    22    26    27   ar
    23     4     8    1
    24     8     9    1
    25    17    12   ar
    26     9     1    1
    27    21    19    1
    28    27    22   ar
    29    14    18    1
    30     7    10    1
@<TRIPOS>MOLECULE
*****
 27 30 0 0 0
SMALL
GASTEIGER

@<TRIPOS>ATOM
      1 C          62.7155   93.9130    1.0717 C.3     1  UNL1        0.0634
      2 C          63.2395   92.8054    1.9369 C.3     1  UNL1        0.0292
      3 C          62.3375   92.1434    2.9358 C.3     1  UNL1        0.0954
      4 N          60.9114   92.5889    3.0695 N.am    1  UNL1       -0.2642
      5 C          60.0094   91.9267    4.0685 C.2     1  UNL1        0.3039
      6 O          58.5833   92.3722    4.2023 O.2     1  UNL1       -0.2526
      7 N          60.5334   90.8192    4.9338 N.am    1  UNL1       -0.2901
      8 C          60.3874   93.6964    2.2043 C.3     1  UNL1        0.0954
      9 C          61.2895   94.3585    1.2054 C.3     1  UNL1        0.0292
     10 H          61.4694   90.5268    4.8460 H       1  UNL1        0.1509
     11 C          65.1833   95.9346    1.7595 C.3     1  UNL1        0.0390
     12 C          64.7519   95.5043    0.3888 C.ar    1  UNL1        0.0669
     13 C          65.3790   95.9277   -0.9063 C.ar    1  UNL1        0.2563
     14 O          66.5477   96.8557   -1.0582 O.3     1  UNL1       -0.4902
     15 N          64.6323   95.2602   -2.0230 N.ar    1  UNL1       -0.0397
     16 O          63.5437   94.4243   -1.4179 O.2     1  UNL1       -0.3552
     17 C          63.6176   94.5751    0.0726 C.ar    1  UNL1        0.1532
     18 H          66.9527   97.2272   -0.2993 H       1  UNL1        0.2938
     19 C          59.6313   90.1570    5.9328 C.3     1  UNL1        0.0774
     20 C          58.2510   89.8249    6.4167 C.3     1  UNL1        0.0259
     21 C          59.4493   89.3424    7.1791 C.3     1  UNL1        0.0420
     22 C          60.0361   88.5936    8.3388 C.ar    1  UNL1       -0.0208
     23 C          60.4762   89.3360    9.5656 C.ar    1  UNL1       -0.0042
     24 C          61.0629   88.5872   10.7253 C.ar    1  UNL1       -0.0003
     25 C          61.2097   87.0959   10.6582 C.ar    1  UNL1       -0.0000
     26 C          60.7696   86.3534    9.4313 C.ar    1  UNL1       -0.0003
     27 C          60.1828   87.1023    8.2716 C.ar    1  UNL1       -0.0042
@<TRIPOS>BOND
     1    11    12    1
     2    12    13   ar
     3    13    14    1
     4    13    15   ar
     5    15    16   ar
     6    16    17   ar
     7    17     1    1
     8     1     2    1
     9     2     3    1
    10     3     4    1
    11     4     5   am
    12     5     6    2
    13     5     7   am
    14     7    19    1
    15    19    20    1
    16    20    21    1
    17    21    22    1
    18    22    23   ar
    19    23    24   ar
    20    24    25   ar
    21    25    26   ar
    22    26    27   ar
    23     4     8    1
    24     8     9    1
    25    17    12   ar
    26     9     1    1
    27    21    19    1
    28    27    22   ar
    29    14    18    1
    30     7    10    1
@<TRIPOS>MOLECULE
*****
 27 30 0 0 0
SMALL
GASTEIGER

@<TRIPOS>ATOM
      1 C          64.7746   91.0736   13.7197 C.3     1  UNL1        0.0634
      2 C          64.3033   91.8483   12.5249 C.3     1  UNL1        0.0292
      3 C          63.3704   91.2110   11.5382 C.3     1  UNL1        0.0954
      4 N          62.9087   89.7991   11.7465 N.am    1  UNL1       -0.2642
      5 C          61.9757   89.1619   10.7597 C.2     1  UNL1        0.3039
      6 O          61.5141   87.7500   10.9679 O.2     1  UNL1       -0.2526
      7 N          61.5045   89.9366    9.5649 N.am    1  UNL1       -0.2901
      8 C          63.3800   89.0244   12.9413 C.3     1  UNL1        0.0954
      9 C          64.3129   89.6617   13.9279 C.3     1  UNL1        0.0292
     10 H          61.8075   90.8633    9.4282 H       1  UNL1        0.1509
     11 C          67.9474   91.6743   13.2480 C.3     1  UNL1        0.0390
     12 C          67.1659   91.9869   14.4896 C.ar    1  UNL1        0.0669
     13 C          67.7056   92.6306   15.7324 C.ar    1  UNL1        0.2563
     14 O          69.1215   93.0746   15.9517 O.3     1  UNL1       -0.4902
     15 N          66.5808   92.7522   16.7174 N.ar    1  UNL1       -0.0397
     16 O          65.3460   92.1838   16.0833 O.2     1  UNL1       -0.3552
     17 C          65.7076   91.7108   14.7065 C.ar    1  UNL1        0.1532
     18 H          69.7593   92.9574   15.2754 H       1  UNL1        0.2938
     19 C          60.5715   89.2993    8.5781 C.3     1  UNL1        0.0774
     20 C          59.8274   88.0937    8.0855 C.3     1  UNL1        0.0259
     21 C          59.6996   89.4013    7.3618 C.3     1  UNL1        0.0420
     22 C          59.1225   90.2151    6.2417 C.ar    1  UNL1       -0.0208
     23 C          60.0323   90.9518    5.3039 C.ar    1  UNL1       -0.0042
     24 C          59.4552   91.7657    4.1838 C.ar    1  UNL1       -0.0003
     25 C          57.9683   91.8428    4.0015 C.ar    1  UNL1       -0.0000
     26 C          57.0585   91.1060    4.9394 C.ar    1  UNL1       -0.0003
     27 C          57.6357   90.2922    6.0595 C.ar    1  UNL1       -0.0042
@<TRIPOS>BOND
     1    11    12    1
     2    12    13   ar
     3    13    14    1
     4    13    15   ar
     5    15    16   ar
     6    16    17   ar
     7    17     1    1
     8     1     2    1
     9     2     3    1
    10     3     4    1
    11     4     5   am
    12     5     6    2
    13     5     7   am
    14     7    19    1
    15    19    20    1
    16    20    21    1
    17    21    22    1
    18    22    23   ar
    19    23    24   ar
    20    24    25   ar
    21    25    26   ar
    22    26    27   ar
    23     4     8    1
    24     8     9    1
    25    17    12   ar
    26     9     1    1
    27    21    19    1
    28    27    22   ar
    29    14    18    1
    30     7    10    1
@<TRIPOS>MOLECULE
*****
 27 30 0 0 0
SMALL
GASTEIGER

@<TRIPOS>ATOM
      1 C          65.0616   90.9841   14.1282 C.3     1  UNL1        0.0634
      2 C          64.3475   91.5723   12.9475 C.3     1  UNL1        0.0292
      3 C          63.4380   90.7154   12.1178 C.3     1  UNL1        0.0954
      4 N          63.2426   89.2702   12.4689 N.am    1  UNL1       -0.2642
      5 C          62.3330   88.4132   11.6392 C.2     1  UNL1        0.3039
      6 O          62.1375   86.9680   11.9903 O.2     1  UNL1       -0.2526
      7 N          61.6189   89.0014   10.4585 N.am    1  UNL1       -0.2901
      8 C          63.9566   88.6820   13.6496 C.3     1  UNL1        0.0954
      9 C          64.8661   89.5390   14.4792 C.3     1  UNL1        0.0292
     10 H          61.7472   89.9499   10.2281 H       1  UNL1        0.1509
     11 C          68.0938   91.8923   13.3341 C.3     1  UNL1        0.0390
     12 C          67.3649   92.2586   14.5929 C.ar    1  UNL1        0.0669
     13 C          67.9017   93.1065   15.7077 C.ar    1  UNL1        0.2563
     14 O          69.2617   93.7371   15.7594 O.3     1  UNL1       -0.4902
     15 N          66.8397   93.2132   16.7617 N.ar    1  UNL1       -0.0397
     16 O          65.6466   92.4311   16.2983 O.2     1  UNL1       -0.3552
     17 C          65.9711   91.8411   14.9579 C.ar    1  UNL1        0.1532
     18 H          69.8621   93.6149   15.0504 H       1  UNL1        0.2938
     19 C          60.7094   88.1444    9.6288 C.3     1  UNL1        0.0774
     20 C          59.3270   87.7673    9.1852 C.3     1  UNL1        0.0259
     21 C          60.5164   87.0372    8.6354 C.3     1  UNL1        0.0420
     22 C          61.0916   85.9764    7.7445 C.ar    1  UNL1       -0.0208
     23 C          62.5304   85.5766    7.8868 C.ar    1  UNL1       -0.0042
     24 C          63.1056   84.5158    6.9959 C.ar    1  UNL1       -0.0003
     25 C          62.2421   83.8547    5.9627 C.ar    1  UNL1       -0.0000
     26 C          60.8034   84.2545    5.8204 C.ar    1  UNL1       -0.0003
     27 C          60.2282   85.3154    6.7114 C.ar    1  UNL1       -0.0042
@<TRIPOS>BOND
     1    11    12    1
     2    12    13   ar
     3    13    14    1
     4    13    15   ar
     5    15    16   ar
     6    16    17   ar
     7    17     1    1
     8     1     2    1
     9     2     3    1
    10     3     4    1
    11     4     5   am
    12     5     6    2
    13     5     7   am
    14     7    19    1
    15    19    20    1
    16    20    21    1
    17    21    22    1
    18    22    23   ar
    19    23    24   ar
    20    24    25   ar
    21    25    26   ar
    22    26    27   ar
    23     4     8    1
    24     8     9    1
    25    17    12   ar
    26     9     1    1
    27    21    19    1
    28    27    22   ar
    29    14    18    1
    30     7    10    1
@<TRIPOS>MOLECULE
*****
 27 30 0 0 0
SMALL
GASTEIGER

@<TRIPOS>ATOM
      1 C          62.4120   94.1549    1.3023 C.3     1  UNL1        0.0634
      2 C          62.9968   93.0161    2.0841 C.3     1  UNL1        0.0292
      3 C          62.1493   92.2721    3.0731 C.3     1  UNL1        0.0954
      4 N          60.7171   92.6668    3.2803 N.am    1  UNL1       -0.2642
      5 C          59.8696   91.9227    4.2694 C.2     1  UNL1        0.3039
      6 O          58.4373   92.3174    4.4766 O.2     1  UNL1       -0.2526
      7 N          60.4543   90.7840    5.0512 N.am    1  UNL1       -0.2901
      8 C          60.1323   93.8056    2.4985 C.3     1  UNL1        0.0954
      9 C          60.9798   94.5496    1.5095 C.3     1  UNL1        0.0292
     10 H          61.3943   90.5249    4.9152 H       1  UNL1        0.1509
     11 C          62.4714   93.6663   -1.9237 C.3     1  UNL1        0.0390
     12 C          63.2867   94.6744   -1.1695 C.ar    1  UNL1        0.0669
     13 C          64.2726   95.6349   -1.7658 C.ar    1  UNL1        0.2563
     14 O          64.6161   95.7559   -3.2209 O.3     1  UNL1       -0.4902
     15 N          64.8546   96.4532   -0.6515 N.ar    1  UNL1       -0.0397
     16 O          64.2285   95.9983    0.6335 O.2     1  UNL1       -0.3552
     17 C          63.2595   94.8990    0.3133 C.ar    1  UNL1        0.1532
     18 H          64.1992   95.1990   -3.8486 H       1  UNL1        0.2938
     19 C          59.6068   90.0399    6.0403 C.3     1  UNL1        0.0774
     20 C          58.2581   89.5811    6.5095 C.3     1  UNL1        0.0259
     21 C          59.4878   89.2099    7.2840 C.3     1  UNL1        0.0420
     22 C          60.1291   88.5165    8.4493 C.ar    1  UNL1       -0.0208
     23 C          60.2685   87.0230    8.4492 C.ar    1  UNL1       -0.0042
     24 C          60.9098   86.3295    9.6145 C.ar    1  UNL1       -0.0003
     25 C          61.4117   87.1296   10.7799 C.ar    1  UNL1       -0.0000
     26 C          61.2722   88.6231   10.7800 C.ar    1  UNL1       -0.0003
     27 C          60.6309   89.3165    9.6146 C.ar    1  UNL1       -0.0042
@<TRIPOS>BOND
     1    11    12    1
     2    12    13   ar
     3    13    14    1
     4    13    15   ar
     5    15    16   ar
     6    16    17   ar
     7    17     1    1
     8     1     2    1
     9     2     3    1
    10     3     4    1
    11     4     5   am
    12     5     6    2
    13     5     7   am
    14     7    19    1
    15    19    20    1
    16    20    21    1
    17    21    22    1
    18    22    23   ar
    19    23    24   ar
    20    24    25   ar
    21    25    26   ar
    22    26    27   ar
    23     4     8    1
    24     8     9    1
    25    17    12   ar
    26     9     1    1
    27    21    19    1
    28    27    22   ar
    29    14    18    1
    30     7    10    1
@<TRIPOS>MOLECULE
*****
 27 30 0 0 0
SMALL
GASTEIGER

@<TRIPOS>ATOM
      1 C          45.7278   71.3655   15.5280 C.3     1  UNL1        0.0634
      2 C          45.7826   71.1557   17.0122 C.3     1  UNL1        0.0292
      3 C          45.6582   72.3275   17.9403 C.3     1  UNL1        0.0954
      4 N          45.4790   73.7090   17.3843 N.am    1  UNL1       -0.2642
      5 C          45.3546   74.8808   18.3125 C.2     1  UNL1        0.3039
      6 O          45.1755   76.2623   17.7564 O.2     1  UNL1       -0.2526
      7 N          45.4094   74.6710   19.7967 N.am    1  UNL1       -0.2901
      8 C          45.4243   73.9188   15.9000 C.3     1  UNL1        0.0954
      9 C          45.5486   72.7470   14.9719 C.3     1  UNL1        0.0292
     10 H          45.5270   73.7643   20.1616 H       1  UNL1        0.1509
     11 C          43.6350   70.5679   13.1544 C.3     1  UNL1        0.0390
     12 C          44.8903   69.8271   13.5088 C.ar    1  UNL1        0.0669
     13 C          45.4039   68.5896   12.8344 C.ar    1  UNL1        0.2563
     14 O          44.7526   67.8757   11.6872 O.3     1  UNL1       -0.4902
     15 N          46.6834   68.1914   13.5086 N.ar    1  UNL1       -0.0397
     16 O          46.9604   69.1828   14.5997 O.2     1  UNL1       -0.3552
     17 C          45.8522   70.1937   14.5998 C.ar    1  UNL1        0.1532
     18 H          43.9496   68.1996   11.3290 H       1  UNL1        0.2938
     19 C          45.2850   75.8428   20.7249 C.3     1  UNL1        0.0774
     20 C          44.9456   76.3997   22.0757 C.3     1  UNL1        0.0259
     21 C          45.4089   77.3155   20.9818 C.3     1  UNL1        0.0420
     22 C          45.7479   78.6944   20.4985 C.ar    1  UNL1       -0.0208
     23 C          44.8589   79.8511   20.8473 C.ar    1  UNL1       -0.0042
     24 C          45.1979   81.2300   20.3640 C.ar    1  UNL1       -0.0003
     25 C          46.4259   81.4523   19.5318 C.ar    1  UNL1       -0.0000
     26 C          47.3150   80.2956   19.1830 C.ar    1  UNL1       -0.0003
     27 C          46.9759   78.9166   19.6663 C.ar    1  UNL1       -0.0042
@<TRIPOS>BOND
     1    11    12    1
     2    12    13   ar
     3    13    14    1
     4    13    15   ar
     5    15    16   ar
     6    16    17   ar
     7    17     1    1
     8     1     2    1
     9     2     3    1
    10     3     4    1
    11     4     5   am
    12     5     6    2
    13     5     7   am
    14     7    19    1
    15    19    20    1
    16    20    21    1
    17    21    22    1
    18    22    23   ar
    19    23    24   ar
    20    24    25   ar
    21    25    26   ar
    22    26    27   ar
    23     4     8    1
    24     8     9    1
    25    17    12   ar
    26     9     1    1
    27    21    19    1
    28    27    22   ar
    29    14    18    1
    30     7    10    1
