@<TRIPOS>MOLECULE
*****
 22 25 0 0 0
SMALL
GASTEIGER

@<TRIPOS>ATOM
      1 C          63.1134   85.4766   12.5708 C.2     1  UNL1        0.3394
      2 O          64.0672   85.9009   13.6478 O.2     1  UNL1       -0.2452
      3 C          61.9004   83.6376   14.9046 C.3     1  UNL1        0.0271
      4 C          62.1935   82.5216   13.9463 C.2     1  UNL1       -0.0344
      5 C          61.8747   81.1054   14.3240 C.2     1  UNL1       -0.0078
      6 C          62.1679   79.9893   13.3657 C.2     1  UNL1        0.0006
      7 C          62.7799   80.2894   12.0295 C.2     1  UNL1        0.0153
      8 C          63.0987   81.7056   11.6518 C.2     1  UNL1        0.0667
      9 N          63.7005   82.3031   10.4145 N.2     1  UNL1       -0.2476
     10 C          63.7792   83.7885   10.6081 C.2     1  UNL1        0.1013
     11 C          63.2261   84.1089   11.9651 C.2     1  UNL1        0.0814
     12 C          62.8056   82.8216   12.6101 C.3     1  UNL1        0.0886
     13 O          62.0466   86.4200   12.0994 O.3     1  UNL1       -0.4456
     14 C          62.2137   87.1528   10.8012 C.3     1  UNL1        0.2087
     15 C          61.4288   86.7298    9.5950 C.3     1  UNL1        0.0445
     16 C          62.0673   85.8625    8.5509 C.3     1  UNL1        0.0210
     17 C          61.2823   85.4396    7.3447 C.3     1  UNL1        0.0722
     18 N          59.8588   85.8841    7.1824 N.3     1  UNL1       -0.2727
     19 C          59.2203   86.7514    8.2265 C.3     1  UNL1        0.0722
     20 C          60.0054   87.1743    9.4328 C.3     1  UNL1        0.0210
     21 C          60.2489   86.1412    7.8605 C.3     1  UNL1        0.0722
     22 C          60.9586   86.5236    8.9512 C.3     1  UNL1        0.0210
@<TRIPOS>BOND
     1     3     4    1
     2     4     5    2
     3     5     6    1
     4     6     7    2
     5     7     8    1
     6     8     9    2
     7     9    10    1
     8    10    11    2
     9    11     1    1
    10     1     2    2
    11     1    13    1
    12    13    14    1
    13    14    15    1
    14    15    16    1
    15    16    17    1
    16    17    18    1
    17    18    19    1
    18    19    20    1
    19    18    21    1
    20    21    22    1
    21    11    12    1
    22    12     4    1
    23    12     8    1
    24    20    15    1
    25    22    15    1
@<TRIPOS>MOLECULE
*****
 22 25 0 0 0
SMALL
GASTEIGER

@<TRIPOS>ATOM
      1 C          62.1332   89.2929   11.9175 C.2     1  UNL1        0.3394
      2 O          60.7922   89.6060   12.5120 O.2     1  UNL1       -0.2452
      3 C          63.8489   89.3570   14.6290 C.3     1  UNL1        0.0271
      4 C          64.5810   90.4704   13.9403 C.2     1  UNL1       -0.0344
      5 C          65.7175   91.1621   14.6332 C.2     1  UNL1       -0.0078
      6 C          66.4496   92.2756   13.9445 C.2     1  UNL1        0.0006
      7 C          66.0452   92.6974   12.5631 C.2     1  UNL1        0.0153
      8 C          64.9088   92.0057   11.8702 C.2     1  UNL1        0.0667
      9 N          64.2889   92.2016   10.5184 N.2     1  UNL1       -0.2476
     10 C          63.1737   91.2093   10.3715 C.2     1  UNL1        0.1013
     11 C          63.1044   90.4000   11.6326 C.2     1  UNL1        0.0814
     12 C          64.1767   90.8923   12.5589 C.3     1  UNL1        0.0886
     13 O          62.5032   87.8725   11.6078 O.3     1  UNL1       -0.4456
     14 C          61.4475   86.9009   11.1701 C.3     1  UNL1        0.2087
     15 C          61.4652   86.3529    9.7740 C.3     1  UNL1        0.0445
     16 C          62.6880   85.6542    9.2579 C.3     1  UNL1        0.0210
     17 C          62.7056   85.1062    7.8617 C.3     1  UNL1        0.0722
     18 N          61.5003   85.2569    6.9815 N.3     1  UNL1       -0.2727
     19 C          60.2774   85.9556    7.4976 C.3     1  UNL1        0.0722
     20 C          60.2598   86.5036    8.8939 C.3     1  UNL1        0.0210
     21 C          61.4436   85.5737    7.7394 C.3     1  UNL1        0.0722
     22 C          61.4276   86.0692    9.0019 C.3     1  UNL1        0.0210
@<TRIPOS>BOND
     1     3     4    1
     2     4     5    2
     3     5     6    1
     4     6     7    2
     5     7     8    1
     6     8     9    2
     7     9    10    1
     8    10    11    2
     9    11     1    1
    10     1     2    2
    11     1    13    1
    12    13    14    1
    13    14    15    1
    14    15    16    1
    15    16    17    1
    16    17    18    1
    17    18    19    1
    18    19    20    1
    19    18    21    1
    20    21    22    1
    21    11    12    1
    22    12     4    1
    23    12     8    1
    24    20    15    1
    25    22    15    1
@<TRIPOS>MOLECULE
*****
 22 25 0 0 0
SMALL
GASTEIGER

@<TRIPOS>ATOM
      1 C          63.9942   90.8215   13.3016 C.2     1  UNL1        0.3394
      2 O          63.6420   91.5322   14.5746 O.2     1  UNL1       -0.2452
      3 C          62.4258   90.6622   10.5061 C.3     1  UNL1        0.0271
      4 C          62.4139   89.1893   10.7899 C.2     1  UNL1       -0.0344
      5 C          61.7680   88.2440    9.8208 C.2     1  UNL1       -0.0078
      6 C          61.7561   86.7711   10.1046 C.2     1  UNL1        0.0006
      7 C          62.3902   86.2435   11.3574 C.2     1  UNL1        0.0153
      8 C          63.0362   87.1888   12.3264 C.2     1  UNL1        0.0667
      9 N          63.7354   86.9631   13.6341 N.2     1  UNL1       -0.2476
     10 C          64.1794   88.2964   14.1586 C.2     1  UNL1        0.1013
     11 C          63.7546   89.3462   13.1750 C.2     1  UNL1        0.0814
     12 C          63.0480   88.6617   12.0427 C.3     1  UNL1        0.0886
     13 O          64.5862   91.5863   12.1549 O.3     1  UNL1       -0.4456
     14 C          65.8615   92.3533   12.3436 C.3     1  UNL1        0.2087
     15 C          66.5598   92.9505   11.1581 C.3     1  UNL1        0.0445
     16 C          66.2129   94.3371   10.7032 C.3     1  UNL1        0.0210
     17 C          66.9113   94.9342    9.5176 C.3     1  UNL1        0.0722
     18 N          67.9567   94.1448    8.7868 N.3     1  UNL1       -0.2727
     19 C          68.3037   92.7582    9.2417 C.3     1  UNL1        0.0722
     20 C          67.6052   92.1610   10.4274 C.3     1  UNL1        0.0210
     21 C          67.6011   93.7754    9.4311 C.3     1  UNL1        0.0722
     22 C          66.9696   93.2353   10.5031 C.3     1  UNL1        0.0210
@<TRIPOS>BOND
     1     3     4    1
     2     4     5    2
     3     5     6    1
     4     6     7    2
     5     7     8    1
     6     8     9    2
     7     9    10    1
     8    10    11    2
     9    11     1    1
    10     1     2    2
    11     1    13    1
    12    13    14    1
    13    14    15    1
    14    15    16    1
    15    16    17    1
    16    17    18    1
    17    18    19    1
    18    19    20    1
    19    18    21    1
    20    21    22    1
    21    11    12    1
    22    12     4    1
    23    12     8    1
    24    20    15    1
    25    22    15    1
@<TRIPOS>MOLECULE
*****
 22 25 0 0 0
SMALL
GASTEIGER

@<TRIPOS>ATOM
      1 C          62.8817   85.5183   12.4749 C.2     1  UNL1        0.3394
      2 O          63.8057   85.9835   13.5610 O.2     1  UNL1       -0.2452
      3 C          61.8852   83.6133   14.8577 C.3     1  UNL1        0.0271
      4 C          62.2150   82.5149   13.8909 C.2     1  UNL1       -0.0344
      5 C          62.0063   81.0823   14.2836 C.2     1  UNL1       -0.0078
      6 C          62.3361   79.9839   13.3169 C.2     1  UNL1        0.0006
      7 C          62.8747   80.3180   11.9574 C.2     1  UNL1        0.0153
      8 C          63.0835   81.7505   11.5647 C.2     1  UNL1        0.0667
      9 N          63.5958   82.3811   10.3038 N.2     1  UNL1       -0.2476
     10 C          63.5826   83.8693   10.4912 C.2     1  UNL1        0.1013
     11 C          63.0621   84.1584   11.8680 C.2     1  UNL1        0.0814
     12 C          62.7536   82.8489   12.5314 C.3     1  UNL1        0.0886
     13 O          61.7772   86.4130   11.9956 O.3     1  UNL1       -0.4456
     14 C          62.0145   87.3481   10.8469 C.3     1  UNL1        0.2087
     15 C          62.5457   88.7277   11.1005 C.3     1  UNL1        0.0445
     16 C          63.1785   89.0571   12.4200 C.3     1  UNL1        0.0210
     17 C          63.7096   90.4368   12.6735 C.3     1  UNL1        0.0722
     18 N          63.6080   91.4872   11.6075 N.3     1  UNL1       -0.2727
     19 C          62.9752   91.1579   10.2880 C.3     1  UNL1        0.0722
     20 C          62.4440   89.7781   10.0345 C.3     1  UNL1        0.0210
     21 C          63.3027   90.7452   11.4223 C.3     1  UNL1        0.0722
     22 C          62.8224   89.4977   11.1930 C.3     1  UNL1        0.0210
@<TRIPOS>BOND
     1     3     4    1
     2     4     5    2
     3     5     6    1
     4     6     7    2
     5     7     8    1
     6     8     9    2
     7     9    10    1
     8    10    11    2
     9    11     1    1
    10     1     2    2
    11     1    13    1
    12    13    14    1
    13    14    15    1
    14    15    16    1
    15    16    17    1
    16    17    18    1
    17    18    19    1
    18    19    20    1
    19    18    21    1
    20    21    22    1
    21    11    12    1
    22    12     4    1
    23    12     8    1
    24    20    15    1
    25    22    15    1
@<TRIPOS>MOLECULE
*****
 22 25 0 0 0
SMALL
GASTEIGER

@<TRIPOS>ATOM
      1 C          61.8384   87.2897   11.2794 C.2     1  UNL1        0.3394
      2 O          60.3551   87.4757   11.4023 O.2     1  UNL1       -0.2452
      3 C          62.8850   85.2613   13.5355 C.3     1  UNL1        0.0271
      4 C          63.2877   84.4248   12.3573 C.2     1  UNL1       -0.0344
      5 C          63.9547   83.0986   12.5721 C.2     1  UNL1       -0.0078
      6 C          64.3573   82.2620   11.3939 C.2     1  UNL1        0.0006
      7 C          64.0930   82.7517   10.0010 C.2     1  UNL1        0.0153
      8 C          63.4260   84.0780    9.7863 C.2     1  UNL1        0.0667
      9 N          63.0390   84.8167    8.5394 N.2     1  UNL1       -0.2476
     10 C          62.3972   86.1097    8.9470 C.2     1  UNL1        0.1013
     11 C          62.3875   86.1702   10.4457 C.2     1  UNL1        0.0814
     12 C          63.0233   84.9145   10.9644 C.3     1  UNL1        0.0886
     13 O          62.7727   88.2235   11.9903 O.3     1  UNL1       -0.4456
     14 C          62.4361   89.6810   12.1009 C.3     1  UNL1        0.2087
     15 C          63.5298   90.7072   12.0767 C.3     1  UNL1        0.0445
     16 C          63.8474   91.4351   10.8042 C.3     1  UNL1        0.0210
     17 C          64.9412   92.4613   10.7802 C.3     1  UNL1        0.0722
     18 N          65.7174   92.7597   12.0286 N.3     1  UNL1       -0.2727
     19 C          65.3998   92.0318   13.3011 C.3     1  UNL1        0.0722
     20 C          64.3060   91.0055   13.3252 C.3     1  UNL1        0.0210
     21 C          65.1270   92.1891   12.0907 C.3     1  UNL1        0.0722
     22 C          64.1380   91.2611   12.1126 C.3     1  UNL1        0.0210
@<TRIPOS>BOND
     1     3     4    1
     2     4     5    2
     3     5     6    1
     4     6     7    2
     5     7     8    1
     6     8     9    2
     7     9    10    1
     8    10    11    2
     9    11     1    1
    10     1     2    2
    11     1    13    1
    12    13    14    1
    13    14    15    1
    14    15    16    1
    15    16    17    1
    16    17    18    1
    17    18    19    1
    18    19    20    1
    19    18    21    1
    20    21    22    1
    21    11    12    1
    22    12     4    1
    23    12     8    1
    24    20    15    1
    25    22    15    1
@<TRIPOS>MOLECULE
*****
 22 25 0 0 0
SMALL
GASTEIGER

@<TRIPOS>ATOM
      1 C          62.6181   86.3704   11.9502 C.2     1  UNL1        0.3394
      2 O          63.1278   87.7552   12.2194 O.2     1  UNL1       -0.2452
      3 C          60.0080   88.0641   11.1638 C.3     1  UNL1        0.0271
      4 C          60.1522   87.3572    9.8487 C.2     1  UNL1       -0.0344
      5 C          59.1753   87.6245    8.7424 C.2     1  UNL1       -0.0078
      6 C          59.3196   86.9175    7.4273 C.2     1  UNL1        0.0006
      7 C          60.4408   85.9433    7.2186 C.2     1  UNL1        0.0153
      8 C          61.4177   85.6759    8.3250 C.2     1  UNL1        0.0667
      9 N          62.6145   84.7757    8.4115 N.2     1  UNL1       -0.2476
     10 C          63.2098   84.9263    9.7800 C.2     1  UNL1        0.1013
     11 C          62.3810   85.9196   10.5393 C.2     1  UNL1        0.0814
     12 C          61.2735   86.3829    9.6400 C.3     1  UNL1        0.0886
     13 O          62.3456   85.4364   13.0919 O.3     1  UNL1       -0.4456
     14 C          63.3219   84.3452   13.4176 C.3     1  UNL1        0.2087
     15 C          62.9012   82.9088   13.3198 C.3     1  UNL1        0.0445
     16 C          62.0108   82.3147   14.3707 C.3     1  UNL1        0.0210
     17 C          61.5902   80.8782   14.2728 C.3     1  UNL1        0.0722
     18 N          62.0600   80.0357   13.1240 N.3     1  UNL1       -0.2727
     19 C          62.9504   80.6297   12.0732 C.3     1  UNL1        0.0722
     20 C          63.3710   82.0663   12.1711 C.3     1  UNL1        0.0210
     21 C          62.3168   80.8180   13.1350 C.3     1  UNL1        0.0722
     22 C          62.6972   82.1169   13.2234 C.3     1  UNL1        0.0210
@<TRIPOS>BOND
     1     3     4    1
     2     4     5    2
     3     5     6    1
     4     6     7    2
     5     7     8    1
     6     8     9    2
     7     9    10    1
     8    10    11    2
     9    11     1    1
    10     1     2    2
    11     1    13    1
    12    13    14    1
    13    14    15    1
    14    15    16    1
    15    16    17    1
    16    17    18    1
    17    18    19    1
    18    19    20    1
    19    18    21    1
    20    21    22    1
    21    11    12    1
    22    12     4    1
    23    12     8    1
    24    20    15    1
    25    22    15    1
@<TRIPOS>MOLECULE
*****
 22 25 0 0 0
SMALL
GASTEIGER

@<TRIPOS>ATOM
      1 C          63.0517   85.7745   12.7576 C.2     1  UNL1        0.3394
      2 O          63.8098   86.8448   13.4852 O.2     1  UNL1       -0.2452
      3 C          63.5079   83.7441   10.3144 C.3     1  UNL1        0.0271
      4 C          63.1898   82.7002   11.3435 C.2     1  UNL1       -0.0344
      5 C          63.1855   81.2492   10.9634 C.2     1  UNL1       -0.0078
      6 C          62.8675   80.2053   11.9925 C.2     1  UNL1        0.0006
      7 C          62.5537   80.6123   13.4017 C.2     1  UNL1        0.0153
      8 C          62.5581   82.0633   13.7818 C.2     1  UNL1        0.0667
      9 N          62.2899   82.7611   15.0823 N.2     1  UNL1       -0.2476
     10 C          62.4421   84.2362   14.8569 C.2     1  UNL1        0.1013
     11 C          62.8045   84.4502   13.4172 C.2     1  UNL1        0.0814
     12 C          62.8761   83.1073   12.7527 C.3     1  UNL1        0.0886
     13 O          62.5408   86.0285   11.3703 O.3     1  UNL1       -0.4456
     14 C          61.9677   87.3686   11.0157 C.3     1  UNL1        0.2087
     15 C          61.0873   87.5124    9.8099 C.3     1  UNL1        0.0445
     16 C          60.6868   88.8767    9.3321 C.3     1  UNL1        0.0210
     17 C          59.8064   89.0205    8.1262 C.3     1  UNL1        0.0722
     18 N          59.3265   87.8000    7.3980 N.3     1  UNL1       -0.2727
     19 C          59.7270   86.4357    7.8758 C.3     1  UNL1        0.0722
     20 C          60.6075   86.2919    9.0818 C.3     1  UNL1        0.0210
     21 C          59.8073   87.6711    8.0539 C.3     1  UNL1        0.0722
     22 C          60.6034   87.5410    9.1443 C.3     1  UNL1        0.0210
@<TRIPOS>BOND
     1     3     4    1
     2     4     5    2
     3     5     6    1
     4     6     7    2
     5     7     8    1
     6     8     9    2
     7     9    10    1
     8    10    11    2
     9    11     1    1
    10     1     2    2
    11     1    13    1
    12    13    14    1
    13    14    15    1
    14    15    16    1
    15    16    17    1
    16    17    18    1
    17    18    19    1
    18    19    20    1
    19    18    21    1
    20    21    22    1
    21    11    12    1
    22    12     4    1
    23    12     8    1
    24    20    15    1
    25    22    15    1
@<TRIPOS>MOLECULE
*****
 22 25 0 0 0
SMALL
GASTEIGER

@<TRIPOS>ATOM
      1 C          62.4226   88.9600   11.6488 C.2     1  UNL1        0.3394
      2 O          61.6054   89.7074   12.6603 O.2     1  UNL1       -0.2452
      3 C          64.2312   88.5460   14.2674 C.3     1  UNL1        0.0271
      4 C          64.0587   87.0901   13.9502 C.2     1  UNL1       -0.0344
      5 C          64.6924   86.0512   14.8272 C.2     1  UNL1       -0.0078
      6 C          64.5199   84.5953   14.5100 C.2     1  UNL1        0.0006
      7 C          63.7138   84.1783   13.3157 C.2     1  UNL1        0.0153
      8 C          63.0802   85.2172   12.4387 C.2     1  UNL1        0.0667
      9 N          62.2363   85.1088   11.2033 N.2     1  UNL1       -0.2476
     10 C          61.8873   86.4977   10.7570 C.2     1  UNL1        0.1013
     11 C          62.5154   87.4644   11.7166 C.2     1  UNL1        0.0814
     12 C          63.2527   86.6731   12.7559 C.3     1  UNL1        0.0886
     13 O          63.1471   89.7083   10.5692 O.3     1  UNL1       -0.4456
     14 C          63.2546   91.2030   10.6352 C.3     1  UNL1        0.2087
     15 C          64.4457   91.8412   11.2863 C.3     1  UNL1        0.0445
     16 C          64.6571   91.7013   12.7647 C.3     1  UNL1        0.0210
     17 C          65.8482   92.3395   13.4157 C.3     1  UNL1        0.0722
     18 N          66.8281   93.1176   12.5883 N.3     1  UNL1       -0.2727
     19 C          66.6167   93.2575   11.1099 C.3     1  UNL1        0.0722
     20 C          65.4255   92.6193   10.4588 C.3     1  UNL1        0.0210
     21 C          66.1903   92.7858   12.1869 C.3     1  UNL1        0.0722
     22 C          65.1133   92.2087   11.5981 C.3     1  UNL1        0.0210
@<TRIPOS>BOND
     1     3     4    1
     2     4     5    2
     3     5     6    1
     4     6     7    2
     5     7     8    1
     6     8     9    2
     7     9    10    1
     8    10    11    2
     9    11     1    1
    10     1     2    2
    11     1    13    1
    12    13    14    1
    13    14    15    1
    14    15    16    1
    15    16    17    1
    16    17    18    1
    17    18    19    1
    18    19    20    1
    19    18    21    1
    20    21    22    1
    21    11    12    1
    22    12     4    1
    23    12     8    1
    24    20    15    1
    25    22    15    1
@<TRIPOS>MOLECULE
*****
 22 25 0 0 0
SMALL
GASTEIGER

@<TRIPOS>ATOM
      1 C          62.2421   86.4967   11.9797 C.2     1  UNL1        0.3394
      2 O          63.3327   87.4743   12.3033 O.2     1  UNL1       -0.2452
      3 C          63.7497   84.5646    9.9075 C.3     1  UNL1        0.0271
      4 C          62.6880   85.0342    8.9577 C.2     1  UNL1       -0.0344
      5 C          62.6675   84.5280    7.5459 C.2     1  UNL1       -0.0078
      6 C          61.6057   84.9976    6.5961 C.2     1  UNL1        0.0006
      7 C          60.5645   85.9735    7.0580 C.2     1  UNL1        0.0153
      8 C          60.5851   86.4798    8.4698 C.2     1  UNL1        0.0667
      9 N          59.6965   87.4388    9.2052 N.2     1  UNL1       -0.2476
     10 C          60.2091   87.5619   10.6095 C.2     1  UNL1        0.1013
     11 C          61.4144   86.6789   10.7420 C.2     1  UNL1        0.0814
     12 C          61.6468   86.0102    9.4196 C.3     1  UNL1        0.0886
     13 O          61.9792   85.3368   12.8938 O.3     1  UNL1       -0.4456
     14 C          63.0656   84.3412   13.1737 C.3     1  UNL1        0.2087
     15 C          62.7586   82.8730   13.1623 C.3     1  UNL1        0.0445
     16 C          63.1888   82.0258   12.0016 C.3     1  UNL1        0.0210
     17 C          62.8817   80.5576   11.9903 C.3     1  UNL1        0.0722
     18 N          62.1443   79.9366   13.1395 N.3     1  UNL1       -0.2727
     19 C          61.7142   80.7838   14.3002 C.3     1  UNL1        0.0722
     20 C          62.0213   82.2521   14.3116 C.3     1  UNL1        0.0210
     21 C          62.2900   80.7454   13.1906 C.3     1  UNL1        0.0722
     22 C          62.5676   82.0730   13.2010 C.3     1  UNL1        0.0210
@<TRIPOS>BOND
     1     3     4    1
     2     4     5    2
     3     5     6    1
     4     6     7    2
     5     7     8    1
     6     8     9    2
     7     9    10    1
     8    10    11    2
     9    11     1    1
    10     1     2    2
    11     1    13    1
    12    13    14    1
    13    14    15    1
    14    15    16    1
    15    16    17    1
    16    17    18    1
    17    18    19    1
    18    19    20    1
    19    18    21    1
    20    21    22    1
    21    11    12    1
    22    12     4    1
    23    12     8    1
    24    20    15    1
    25    22    15    1
