@<TRIPOS>MOLECULE
*****
 41 47 0 0 0
SMALL
GASTEIGER

@<TRIPOS>ATOM
      1 C          61.3368   89.0274   11.2298 C.3     1  UNL1        0.0507
      2 C          60.4882   89.7094   12.2617 C.3     1  UNL1        0.0044
      3 C          60.0946   88.3592   11.7403 C.3     1  UNL1        0.0044
      4 C          62.4141   90.0567   11.0570 C.3     1  UNL1        0.1118
      5 C          62.4577   90.8952    9.8139 C.3     1  UNL1        0.1599
      6 O          63.5350   91.9245    9.6410 O.3     1  UNL1       -0.3508
      7 C          64.5687   92.1154   10.7111 C.3     1  UNL1        0.1598
      8 C          64.5251   91.2769   11.9541 C.3     1  UNL1        0.1091
      9 N          63.4477   90.2476   12.1270 N.3     1  UNL1       -0.1532
     10 C          65.5587   91.4677   13.0241 C.3     1  UNL1        0.0189
     11 C          66.8889   92.0028   13.4647 C.3     1  UNL1        0.0015
     12 C          66.0188   91.2631   14.4371 C.3     1  UNL1        0.0015
     13 S          63.4041   89.4091   13.3700 S.O2    1  UNL1        0.0634
     14 O          63.8960   87.9947   13.2832 O.2     1  UNL1       -0.1528
     15 O          62.8238   90.5651   14.1295 O.2     1  UNL1       -0.1528
     16 C          63.3605   88.5706   14.6130 C.ar    1  UNL1        0.1223
     17 C          62.7958   89.1385   15.8814 C.ar    1  UNL1        0.0208
     18 C          62.7522   88.3000   17.1244 C.ar    1  UNL1        0.0128
     19 C          63.2733   86.8937   17.0991 C.ar    1  UNL1        0.0578
     20 CL         63.2297   86.0553   18.3420 Cl      1  UNL1       -0.0822
     21 C          63.8380   86.3259   15.8307 C.ar    1  UNL1        0.0128
     22 C          63.8816   87.1643   14.5877 C.ar    1  UNL1        0.0208
     23 C          61.8111   87.9879   10.2580 C.3     1  UNL1        0.1880
     24 O          63.2487   87.5597   10.2602 O.3     1  UNL1       -0.3757
     25 H          63.7306   88.0485   10.9455 H       1  UNL1        0.2110
     26 O          60.6562   85.8894    9.2520 O.2     1  UNL1       -0.2723
     27 C          60.8479   87.3767    9.2841 C.2     1  UNL1        0.2525
     28 N          60.0764   88.2528    8.3422 N.am    1  UNL1       -0.2808
     29 C          60.1623   89.7480    8.2584 C.3     1  UNL1        0.0767
     30 C          59.2225   90.2068    7.1831 C.3     1  UNL1        0.0216
     31 C          58.5557   88.9951    6.6023 C.3     1  UNL1        0.0216
     32 C          59.0835   87.7875    7.3186 C.3     1  UNL1        0.0767
     33 C          59.7790   86.7732    8.1943 C.3     1  UNL1        0.0358
     34 C          60.7421   87.3846    9.1683 C.3     1  UNL1        0.0608
     35 C          60.9338   88.8719    9.2003 C.3     1  UNL1        0.0358
     36 N          61.5137   86.5085   10.1101 N.3     1  UNL1       -0.2738
     37 C          62.6425   85.6652    9.5956 C.3     1  UNL1        0.0720
     38 C          63.4141   84.7891   10.5375 C.3     1  UNL1        0.0174
     39 C          63.0568   84.7562   11.9939 C.3     1  UNL1        0.0029
     40 C          61.9279   85.5993   12.5085 C.3     1  UNL1        0.0174
     41 C          61.1564   86.4755   11.5666 C.3     1  UNL1        0.0720
@<TRIPOS>BOND
     1    26    27    2
     2    27    23    1
     3    23    24    1
     4    23     1    1
     5     4     1    1
     6     4     5    1
     7     5     6    1
     8     6     7    1
     9     7     8    1
    10     8    10    1
    11    10    11    1
    12    11    12    1
    13     8     9    1
    14     9    13    1
    15    13    14    2
    16    13    15    2
    17    13    16    1
    18    16    17   ar
    19    17    18   ar
    20    18    19   ar
    21    19    20    1
    22    19    21   ar
    23    21    22   ar
    24     1     2    1
    25     2     3    1
    26    27    28   am
    27    28    29    1
    28    29    30    1
    29    30    31    1
    30    31    32    1
    31    32    33    1
    32    33    34    1
    33    34    36    1
    34    36    37    1
    35    37    38    1
    36    38    39    1
    37    39    40    1
    38    40    41    1
    39    34    35    1
    40     3     1    1
    41    32    28    1
    42    41    36    1
    43     9     4    1
    44    22    16   ar
    45    35    29    1
    46    12    10    1
    47    24    25    1
@<TRIPOS>MOLECULE
*****
 41 47 0 0 0
SMALL
GASTEIGER

@<TRIPOS>ATOM
      1 C          64.0391   84.9759   13.1833 C.3     1  UNL1        0.0507
      2 C          65.4565   85.0429   12.6968 C.3     1  UNL1        0.0044
      3 C          64.7603   83.7182   12.7983 C.3     1  UNL1        0.0044
      4 C          63.7790   86.4326   13.4289 C.3     1  UNL1        0.1118
      5 C          64.1942   87.0601   14.7266 C.3     1  UNL1        0.1599
      6 O          63.9341   88.5168   14.9724 O.3     1  UNL1       -0.3508
      7 C          63.2588   89.3460   13.9205 C.3     1  UNL1        0.1598
      8 C          62.8436   88.7185   12.6229 C.3     1  UNL1        0.1091
      9 N          63.1037   87.2617   12.3772 N.3     1  UNL1       -0.1532
     10 C          62.1683   89.5476   11.5710 C.3     1  UNL1        0.0189
     11 C          60.9353   90.2114   11.0333 C.3     1  UNL1        0.0015
     12 C          62.2317   90.3199   10.2866 C.3     1  UNL1        0.0015
     13 S          62.6885   86.6342   11.0795 S.O2    1  UNL1        0.0634
     14 O          63.7661   86.1762   10.1419 O.2     1  UNL1       -0.1528
     15 O          61.2470   86.8191   11.4513 O.2     1  UNL1       -0.1528
     16 C          62.2733   86.0067    9.7819 C.ar    1  UNL1        0.1223
     17 C          60.9376   86.3351    9.1834 C.ar    1  UNL1        0.0208
     18 C          60.5224   85.7076    7.8859 C.ar    1  UNL1        0.0128
     19 C          61.4428   84.7516    7.1866 C.ar    1  UNL1        0.0578
     20 CL         61.0276   84.1241    5.8890 Cl      1  UNL1       -0.0822
     21 C          62.7785   84.4233    7.7851 C.ar    1  UNL1        0.0128
     22 C          63.1938   85.0507    9.0827 C.ar    1  UNL1        0.0208
     23 C          62.7123   84.4029   13.5844 C.3     1  UNL1        0.1880
     24 O          61.4984   85.2829   13.6307 O.3     1  UNL1       -0.3757
     25 H          61.7437   86.1858   13.3745 H       1  UNL1        0.2110
     26 O          62.4869   82.5354   15.3764 O.2     1  UNL1       -0.2723
     27 C          62.5991   82.9499   13.9393 C.2     1  UNL1        0.2525
     28 N          62.5982   81.9114   12.8569 N.am    1  UNL1       -0.2808
     29 C          62.7029   82.1732   11.3837 C.3     1  UNL1        0.0767
     30 C          62.6618   80.8524   10.6741 C.3     1  UNL1        0.0216
     31 C          62.5318   79.7741   11.7087 C.3     1  UNL1        0.0216
     32 C          62.4924   80.4287   13.0578 C.3     1  UNL1        0.0767
     33 C          62.4785   81.3442   14.2581 C.3     1  UNL1        0.0358
     34 C          62.5916   82.7972   13.9032 C.3     1  UNL1        0.0608
     35 C          62.7038   83.2117   12.4660 C.3     1  UNL1        0.0358
     36 N          62.5926   83.8357   14.9855 N.3     1  UNL1       -0.2738
     37 C          63.8427   84.0985   15.7718 C.3     1  UNL1        0.0720
     38 C          63.8436   85.1370   16.8542 C.3     1  UNL1        0.0174
     39 C          62.5945   85.9128   17.1503 C.3     1  UNL1        0.0029
     40 C          61.3443   85.6501   16.3641 C.3     1  UNL1        0.0174
     41 C          61.3434   84.6116   15.2817 C.3     1  UNL1        0.0720
@<TRIPOS>BOND
     1    26    27    2
     2    27    23    1
     3    23    24    1
     4    23     1    1
     5     4     1    1
     6     4     5    1
     7     5     6    1
     8     6     7    1
     9     7     8    1
    10     8    10    1
    11    10    11    1
    12    11    12    1
    13     8     9    1
    14     9    13    1
    15    13    14    2
    16    13    15    2
    17    13    16    1
    18    16    17   ar
    19    17    18   ar
    20    18    19   ar
    21    19    20    1
    22    19    21   ar
    23    21    22   ar
    24     1     2    1
    25     2     3    1
    26    27    28   am
    27    28    29    1
    28    29    30    1
    29    30    31    1
    30    31    32    1
    31    32    33    1
    32    33    34    1
    33    34    36    1
    34    36    37    1
    35    37    38    1
    36    38    39    1
    37    39    40    1
    38    40    41    1
    39    34    35    1
    40     3     1    1
    41    32    28    1
    42    41    36    1
    43     9     4    1
    44    22    16   ar
    45    35    29    1
    46    12    10    1
    47    24    25    1
@<TRIPOS>MOLECULE
*****
 41 47 0 0 0
SMALL
GASTEIGER

@<TRIPOS>ATOM
      1 C          62.6482   88.4600   11.3476 C.3     1  UNL1        0.0507
      2 C          63.3222   87.6903   12.4446 C.3     1  UNL1        0.0044
      3 C          62.2064   87.0619   11.6636 C.3     1  UNL1        0.0044
      4 C          63.4169   89.7460   11.4215 C.3     1  UNL1        0.1118
      5 C          63.6364   90.5608   10.1814 C.3     1  UNL1        0.1599
      6 O          64.4051   91.8468   10.2552 O.3     1  UNL1       -0.3508
      7 C          64.9543   92.3179   11.5692 C.3     1  UNL1        0.1598
      8 C          64.7348   91.5031   12.8093 C.3     1  UNL1        0.1091
      9 N          63.9660   90.2171   12.7354 N.3     1  UNL1       -0.1532
     10 C          65.2839   91.9741   14.1232 C.3     1  UNL1        0.0189
     11 C          66.3302   92.7126   14.9041 C.3     1  UNL1        0.0015
     12 C          65.1886   92.0516   15.6182 C.3     1  UNL1        0.0015
     13 S          63.7465   89.4022   13.9756 S.O2    1  UNL1        0.0634
     14 O          64.8615   88.5132   14.4407 O.2     1  UNL1       -0.1528
     15 O          62.3668   89.9759   14.1083 O.2     1  UNL1       -0.1528
     16 C          63.5270   88.5875   15.2156 C.ar    1  UNL1        0.1223
     17 C          63.8245   87.1173   15.2096 C.ar    1  UNL1        0.0208
     18 C          63.6050   86.3025   16.4497 C.ar    1  UNL1        0.0128
     19 C          63.0879   86.9579   17.6959 C.ar    1  UNL1        0.0578
     20 CL         62.8683   86.1431   18.9360 Cl      1  UNL1       -0.0822
     21 C          62.7903   88.4281   17.7020 C.ar    1  UNL1        0.0128
     22 C          63.0098   89.2428   16.4619 C.ar    1  UNL1        0.0208
     23 C          61.7072   88.7830   10.2251 C.3     1  UNL1        0.1880
     24 O          61.6016   90.1903    9.7165 O.3     1  UNL1       -0.3757
     25 H          62.2040   90.7615   10.2181 H       1  UNL1        0.2110
     26 O          59.3896   87.6743    9.8390 O.2     1  UNL1       -0.2723
     27 C          60.8719   87.6990    9.6111 C.2     1  UNL1        0.2525
     28 N          61.5191   86.6395    8.7692 N.am    1  UNL1       -0.2808
     29 C          62.9820   86.5346    8.4547 C.3     1  UNL1        0.0767
     30 C          63.1838   85.3292    7.5851 C.3     1  UNL1        0.0216
     31 C          61.8458   84.6890    7.3622 C.3     1  UNL1        0.0216
     32 C          60.8169   85.4989    8.0940 C.3     1  UNL1        0.0767
     33 C          60.0172   86.4854    8.9105 C.3     1  UNL1        0.0358
     34 C          60.8525   87.5694    9.5244 C.3     1  UNL1        0.0608
     35 C          62.3348   87.5941    9.2966 C.3     1  UNL1        0.0358
     36 N          60.2054   88.6289   10.3663 N.3     1  UNL1       -0.2738
     37 C          59.7690   88.3120   11.7661 C.3     1  UNL1        0.0720
     38 C          59.1219   89.3714   12.6080 C.3     1  UNL1        0.0174
     39 C          58.9112   90.7478   12.0502 C.3     1  UNL1        0.0029
     40 C          59.3476   91.0648   10.6505 C.3     1  UNL1        0.0174
     41 C          59.9947   90.0053    9.8086 C.3     1  UNL1        0.0720
@<TRIPOS>BOND
     1    26    27    2
     2    27    23    1
     3    23    24    1
     4    23     1    1
     5     4     1    1
     6     4     5    1
     7     5     6    1
     8     6     7    1
     9     7     8    1
    10     8    10    1
    11    10    11    1
    12    11    12    1
    13     8     9    1
    14     9    13    1
    15    13    14    2
    16    13    15    2
    17    13    16    1
    18    16    17   ar
    19    17    18   ar
    20    18    19   ar
    21    19    20    1
    22    19    21   ar
    23    21    22   ar
    24     1     2    1
    25     2     3    1
    26    27    28   am
    27    28    29    1
    28    29    30    1
    29    30    31    1
    30    31    32    1
    31    32    33    1
    32    33    34    1
    33    34    36    1
    34    36    37    1
    35    37    38    1
    36    38    39    1
    37    39    40    1
    38    40    41    1
    39    34    35    1
    40     3     1    1
    41    32    28    1
    42    41    36    1
    43     9     4    1
    44    22    16   ar
    45    35    29    1
    46    12    10    1
    47    24    25    1
@<TRIPOS>MOLECULE
*****
 41 47 0 0 0
SMALL
GASTEIGER

@<TRIPOS>ATOM
      1 C          63.1495   88.6071   12.6575 C.3     1  UNL1        0.0507
      2 C          63.5019   87.2787   12.0565 C.3     1  UNL1        0.0044
      3 C          64.2228   87.7636   13.2792 C.3     1  UNL1        0.0044
      4 C          62.0681   89.0415   11.7131 C.3     1  UNL1        0.1118
      5 C          61.5751   90.4580   11.7382 C.3     1  UNL1        0.1599
      6 O          60.4937   90.8926   10.7938 O.3     1  UNL1       -0.3508
      7 C          59.9053   89.9106    9.8244 C.3     1  UNL1        0.1598
      8 C          60.3983   88.4942    9.7994 C.3     1  UNL1        0.1091
      9 N          61.4797   88.0597   10.7438 N.3     1  UNL1       -0.1532
     10 C          59.8100   87.5123    8.8301 C.3     1  UNL1        0.0189
     11 C          58.6636   87.0576    7.9763 C.3     1  UNL1        0.0015
     12 C          59.9375   86.2662    8.0048 C.3     1  UNL1        0.0015
     13 S          61.9728   86.6432   10.7188 S.O2    1  UNL1        0.0634
     14 O          61.4882   85.7098   11.7883 O.2     1  UNL1       -0.1528
     15 O          62.7838   86.9471    9.4940 O.2     1  UNL1       -0.1528
     16 C          62.4658   85.2268   10.6937 C.ar    1  UNL1        0.1223
     17 C          63.2040   84.7106    9.4943 C.ar    1  UNL1        0.0208
     18 C          63.6970   83.2942    9.4692 C.ar    1  UNL1        0.0128
     19 C          63.4518   82.3939   10.6436 C.ar    1  UNL1        0.0578
     20 CL         63.9448   80.9775   10.6186 Cl      1  UNL1       -0.0822
     21 C          62.7136   82.9100   11.8431 C.ar    1  UNL1        0.0128
     22 C          62.2206   84.3264   11.8681 C.ar    1  UNL1        0.0208
     23 C          63.1726   89.7844   13.5866 C.3     1  UNL1        0.1880
     24 O          61.9188   90.2069   14.2933 O.3     1  UNL1       -0.3757
     25 H          61.1909   89.6178   14.0403 H       1  UNL1        0.2110
     26 O          65.1933   90.3903   15.1029 O.2     1  UNL1       -0.2723
     27 C          64.4496   90.5393   13.8089 C.2     1  UNL1        0.2525
     28 N          64.9828   91.4433   12.7372 N.am    1  UNL1       -0.2808
     29 C          64.3523   91.6917   11.3990 C.3     1  UNL1        0.0767
     30 C          65.2200   92.6595   10.6504 C.3     1  UNL1        0.0216
     31 C          66.3867   93.0093   11.5258 C.3     1  UNL1        0.0216
     32 C          66.2401   92.2576   12.8156 C.3     1  UNL1        0.0767
     33 C          65.8399   91.3935   13.9872 C.3     1  UNL1        0.0358
     34 C          64.5629   90.6386   13.7647 C.3     1  UNL1        0.0608
     35 C          63.8192   90.7877   12.4707 C.3     1  UNL1        0.0358
     36 N          64.0297   89.7347   14.8364 N.3     1  UNL1       -0.2738
     37 C          63.0898   90.2741   15.8736 C.3     1  UNL1        0.0720
     38 C          62.5566   89.3701   16.9453 C.3     1  UNL1        0.0174
     39 C          62.9633   87.9267   16.9799 C.3     1  UNL1        0.0029
     40 C          63.9031   87.3873   15.9428 C.3     1  UNL1        0.0174
     41 C          64.4364   88.2912   14.8710 C.3     1  UNL1        0.0720
@<TRIPOS>BOND
     1    26    27    2
     2    27    23    1
     3    23    24    1
     4    23     1    1
     5     4     1    1
     6     4     5    1
     7     5     6    1
     8     6     7    1
     9     7     8    1
    10     8    10    1
    11    10    11    1
    12    11    12    1
    13     8     9    1
    14     9    13    1
    15    13    14    2
    16    13    15    2
    17    13    16    1
    18    16    17   ar
    19    17    18   ar
    20    18    19   ar
    21    19    20    1
    22    19    21   ar
    23    21    22   ar
    24     1     2    1
    25     2     3    1
    26    27    28   am
    27    28    29    1
    28    29    30    1
    29    30    31    1
    30    31    32    1
    31    32    33    1
    32    33    34    1
    33    34    36    1
    34    36    37    1
    35    37    38    1
    36    38    39    1
    37    39    40    1
    38    40    41    1
    39    34    35    1
    40     3     1    1
    41    32    28    1
    42    41    36    1
    43     9     4    1
    44    22    16   ar
    45    35    29    1
    46    12    10    1
    47    24    25    1
