@<TRIPOS>MOLECULE
*****
 33 36 0 0 0
SMALL
GASTEIGER

@<TRIPOS>ATOM
      1 C          63.9617   89.0186   14.1493 C.2     1  UNL1        0.2320
      2 O          64.5927   87.7075   14.5137 O.2     1  UNL1       -0.2744
      3 N          63.0556   89.1092   12.9573 N.am    1  UNL1       -0.2639
      4 H          62.6414   89.9698   12.7181 H       1  UNL1        0.1567
      5 C          62.7805   87.8889   12.1298 C.ar    1  UNL1        0.1655
      6 N          63.2943   86.5058   12.4004 N.ar    1  UNL1       -0.2238
      7 C          62.7747   85.5994   11.3243 C.ar    1  UNL1        0.0914
      8 C          61.9396   86.4221   10.3885 C.ar    1  UNL1        0.0573
      9 S          61.9432   87.8370   10.8863 S.2     1  UNL1       -0.0508
     10 C          63.0430   84.1284   11.2048 C.ar    1  UNL1        0.0425
     11 C          63.6212   83.4319   10.0088 C.ar    1  UNL1        0.1021
     12 N          63.7157   81.9687   10.3252 N.ar    1  UNL1       -0.2269
     13 C          63.1958   81.7609   11.7168 C.ar    1  UNL1        0.1428
     14 N          63.0474   80.5287   12.5592 N.ar    1  UNL1       -0.3373
     15 C          62.4831   80.6313   13.9452 C.ar    1  UNL1        0.0758
     16 C          62.0673   81.9661   14.4888 C.ar    1  UNL1        0.0482
     17 C          62.2158   83.1982   13.6465 C.ar    1  UNL1        0.1445
     18 F          61.8000   84.5330   14.1901 F       1  UNL1       -0.2040
     19 C          62.7801   83.0957   12.2605 C.ar    1  UNL1        0.0644
     20 H          63.3203   79.6527   12.2024 H       1  UNL1        0.1674
     21 C          64.2368   90.2391   14.9768 C.3     1  UNL1        0.1117
     22 C          65.6201   92.8760   12.3532 C.ar    1  UNL1        0.0641
     23 C          66.5486   93.6760   13.2180 C.ar    1  UNL1        0.0158
     24 C          66.7066   93.3304   14.6691 C.ar    1  UNL1        0.0010
     25 C          65.9359   92.1847   15.2554 C.ar    1  UNL1       -0.0037
     26 C          65.0074   91.3847   14.3905 C.ar    1  UNL1       -0.0118
     27 C          64.8495   91.7304   12.9394 C.ar    1  UNL1        0.0121
     28 N          65.4622   93.2216   10.9021 N.pl3   1  UNL1       -0.2187
     29 H          64.5903   93.1045   10.4603 H       1  UNL1        0.1734
     30 C          67.8034   94.2698    9.3464 C.3     1  UNL1        0.1996
     31 S          66.6328   93.7456   10.1243 S.O2    1  UNL1        0.0558
     32 O          66.0071   95.1088   10.1010 O.2     1  UNL1       -0.1544
     33 O          67.2585   92.3826   10.1475 O.2     1  UNL1       -0.1544
@<TRIPOS>BOND
     1    30    31    1
     2    31    32    2
     3    31    33    2
     4    31    28    1
     5    28    22    1
     6    22    23   ar
     7    23    24   ar
     8    24    25   ar
     9    25    26   ar
    10    26    21    1
    11    21     1    1
    12     1     2    2
    13     1     3   am
    14     3     5    1
    15     5     6   ar
    16     6     7   ar
    17     7    10    1
    18    10    11   ar
    19    11    12   ar
    20    12    13   ar
    21    13    14   ar
    22    14    15   ar
    23    15    16   ar
    24    16    17   ar
    25    17    18    1
    26    17    19   ar
    27     7     8   ar
    28     8     9   ar
    29    26    27   ar
    30    27    22   ar
    31     9     5   ar
    32    19    10   ar
    33    19    13    1
    34    28    29    1
    35     3     4    1
    36    14    20    1
@<TRIPOS>MOLECULE
*****
 33 36 0 0 0
SMALL
GASTEIGER

@<TRIPOS>ATOM
      1 C          64.6405   85.9760   14.8992 C.2     1  UNL1        0.2320
      2 O          66.0415   86.4056   15.2195 O.2     1  UNL1       -0.2744
      3 N          63.5324   86.9868   14.8783 N.am    1  UNL1       -0.2639
      4 H          62.6128   86.7048   14.6681 H       1  UNL1        0.1567
      5 C          63.8252   88.4270   15.1777 C.ar    1  UNL1        0.1655
      6 N          64.7371   89.3230   14.3930 N.ar    1  UNL1       -0.2238
      7 C          64.7331   90.6740   15.0447 C.ar    1  UNL1        0.0914
      8 C          63.8187   90.6131   16.2322 C.ar    1  UNL1        0.0573
      9 S          63.2576   89.2244   16.3144 S.2     1  UNL1       -0.0508
     10 C          65.5074   91.8751   14.5889 C.ar    1  UNL1        0.0425
     11 C          66.3825   92.7383   15.4487 C.ar    1  UNL1        0.1021
     12 N          66.9586   93.8205   14.5844 N.ar    1  UNL1       -0.2269
     13 C          66.4395   93.6262   13.1906 C.ar    1  UNL1        0.1428
     14 N          66.6676   94.3888   11.9192 N.ar    1  UNL1       -0.3373
     15 C          65.9989   93.9490   10.6506 C.ar    1  UNL1        0.0758
     16 C          65.1021   92.7467   10.6534 C.ar    1  UNL1        0.0482
     17 C          64.8739   91.9841   11.9247 C.ar    1  UNL1        0.1445
     18 F          63.9771   90.7818   11.9275 F       1  UNL1       -0.2040
     19 C          65.5426   92.4239   13.1933 C.ar    1  UNL1        0.0644
     20 H          67.2563   95.1779   11.9174 H       1  UNL1        0.1674
     21 C          64.3476   84.5357   14.5998 C.3     1  UNL1        0.1117
     22 C          62.5436   84.5182   11.0649 C.ar    1  UNL1        0.0641
     23 C          63.1555   83.2994   10.4404 C.ar    1  UNL1        0.0158
     24 C          64.1648   82.4926   11.2023 C.ar    1  UNL1        0.0010
     25 C          64.5622   82.9047   12.5888 C.ar    1  UNL1       -0.0037
     26 C          63.9502   84.1236   13.2133 C.ar    1  UNL1       -0.0118
     27 C          62.9409   84.9304   12.4513 C.ar    1  UNL1        0.0121
     28 N          61.5343   85.3250   10.3030 N.pl3   1  UNL1       -0.2187
     29 H          60.7364   84.8874    9.9275 H       1  UNL1        0.1734
     30 C          61.9472   88.2722    9.9236 C.3     1  UNL1        0.1996
     31 S          61.7408   86.7986   10.1133 S.O2    1  UNL1        0.0558
     32 O          60.8379   87.0751   11.2789 O.2     1  UNL1       -0.1544
     33 O          62.6436   86.5221    8.9478 O.2     1  UNL1       -0.1544
@<TRIPOS>BOND
     1    30    31    1
     2    31    32    2
     3    31    33    2
     4    31    28    1
     5    28    22    1
     6    22    23   ar
     7    23    24   ar
     8    24    25   ar
     9    25    26   ar
    10    26    21    1
    11    21     1    1
    12     1     2    2
    13     1     3   am
    14     3     5    1
    15     5     6   ar
    16     6     7   ar
    17     7    10    1
    18    10    11   ar
    19    11    12   ar
    20    12    13   ar
    21    13    14   ar
    22    14    15   ar
    23    15    16   ar
    24    16    17   ar
    25    17    18    1
    26    17    19   ar
    27     7     8   ar
    28     8     9   ar
    29    26    27   ar
    30    27    22   ar
    31     9     5   ar
    32    19    10   ar
    33    19    13    1
    34    28    29    1
    35     3     4    1
    36    14    20    1
@<TRIPOS>MOLECULE
*****
 33 36 0 0 0
SMALL
GASTEIGER

@<TRIPOS>ATOM
      1 C          62.1201   86.7852   10.4760 C.2     1  UNL1        0.2320
      2 O          62.4712   87.2135    9.0820 O.2     1  UNL1       -0.2744
      3 N          62.2262   87.7617   11.6097 N.am    1  UNL1       -0.2639
      4 H          61.9958   87.4806   12.5247 H       1  UNL1        0.1567
      5 C          62.6833   89.1663   11.3494 C.ar    1  UNL1        0.1655
      6 N          63.8408   89.8538   12.0110 N.ar    1  UNL1       -0.2238
      7 C          63.9361   91.2425   11.4523 C.ar    1  UNL1        0.0914
      8 C          62.8375   91.4135   10.4454 C.ar    1  UNL1        0.0573
      9 S          62.0633   90.1304   10.3818 S.2     1  UNL1       -0.0508
     10 C          64.9517   92.2785   11.8336 C.ar    1  UNL1        0.0425
     11 C          65.5024   93.3459   10.9350 C.ar    1  UNL1        0.1021
     12 N          66.4859   94.1561   11.7264 N.ar    1  UNL1       -0.2269
     13 C          66.5431   93.5893   13.1141 C.ar    1  UNL1        0.1428
     14 N          67.3361   93.9800   14.3259 N.ar    1  UNL1       -0.3373
     15 C          67.1809   93.2102   15.6039 C.ar    1  UNL1        0.0758
     16 C          66.2327   92.0498   15.6701 C.ar    1  UNL1        0.0482
     17 C          65.4397   91.6592   14.4583 C.ar    1  UNL1        0.1445
     18 F          64.4915   90.4988   14.5245 F       1  UNL1       -0.2040
     19 C          65.5949   92.4289   13.1803 C.ar    1  UNL1        0.0644
     20 H          67.9584   94.7416   14.2825 H       1  UNL1        0.1674
     21 C          61.6630   85.3805   10.7364 C.3     1  UNL1        0.1117
     22 C          63.5685   83.6298   13.7453 C.ar    1  UNL1        0.0641
     23 C          64.3038   82.5417   13.0205 C.ar    1  UNL1        0.0158
     24 C          64.1589   82.3998   11.5343 C.ar    1  UNL1        0.0010
     25 C          63.2785   83.3461   10.7728 C.ar    1  UNL1       -0.0037
     26 C          62.5432   84.4343   11.4978 C.ar    1  UNL1       -0.0118
     27 C          62.6882   84.5760   12.9840 C.ar    1  UNL1        0.0121
     28 N          63.7135   83.7716   15.2316 N.pl3   1  UNL1       -0.2187
     29 H          63.9143   82.9820   15.7842 H       1  UNL1        0.1734
     30 C          63.3916   86.4617   16.5201 C.3     1  UNL1        0.1996
     31 S          63.5525   85.1166   15.8759 S.O2    1  UNL1        0.0558
     32 O          64.8794   85.5417   15.3200 O.2     1  UNL1       -0.1544
     33 O          62.2257   84.6916   16.4317 O.2     1  UNL1       -0.1544
@<TRIPOS>BOND
     1    30    31    1
     2    31    32    2
     3    31    33    2
     4    31    28    1
     5    28    22    1
     6    22    23   ar
     7    23    24   ar
     8    24    25   ar
     9    25    26   ar
    10    26    21    1
    11    21     1    1
    12     1     2    2
    13     1     3   am
    14     3     5    1
    15     5     6   ar
    16     6     7   ar
    17     7    10    1
    18    10    11   ar
    19    11    12   ar
    20    12    13   ar
    21    13    14   ar
    22    14    15   ar
    23    15    16   ar
    24    16    17   ar
    25    17    18    1
    26    17    19   ar
    27     7     8   ar
    28     8     9   ar
    29    26    27   ar
    30    27    22   ar
    31     9     5   ar
    32    19    10   ar
    33    19    13    1
    34    28    29    1
    35     3     4    1
    36    14    20    1
@<TRIPOS>MOLECULE
*****
 33 36 0 0 0
SMALL
GASTEIGER

@<TRIPOS>ATOM
      1 C          63.4254   89.9749   14.3588 C.2     1  UNL1        0.2320
      2 O          63.8500   88.5530   14.5781 O.2     1  UNL1       -0.2744
      3 N          62.5581   90.3263   13.1866 N.am    1  UNL1       -0.2639
      4 H          62.2794   91.2596   13.0427 H       1  UNL1        0.1567
      5 C          62.1152   89.2561   12.2337 C.ar    1  UNL1        0.1655
      6 N          62.9291   88.0754   11.7936 N.ar    1  UNL1       -0.2238
      7 C          62.0977   87.2681   10.8414 C.ar    1  UNL1        0.0914
      8 C          60.7698   87.9497   10.6928 C.ar    1  UNL1        0.0573
      9 S          60.7806   89.1783   11.5533 S.2     1  UNL1       -0.0508
     10 C          62.5199   86.0014   10.1577 C.ar    1  UNL1        0.0425
     11 C          62.5243   85.7577    8.6777 C.ar    1  UNL1        0.1021
     12 N          63.0190   84.3618    8.4394 N.ar    1  UNL1       -0.2269
     13 C          63.3201   83.7428    9.7721 C.ar    1  UNL1        0.1428
     14 N          63.8354   82.3874   10.1558 N.ar    1  UNL1       -0.3373
     15 C          64.0422   82.0453   11.6015 C.ar    1  UNL1        0.0758
     16 C          63.7337   83.0587   12.6635 C.ar    1  UNL1        0.0482
     17 C          63.2185   84.4141   12.2799 C.ar    1  UNL1        0.1445
     18 F          62.9100   85.4275   13.3419 F       1  UNL1       -0.2040
     19 C          63.0117   84.7562   10.8341 C.ar    1  UNL1        0.0644
     20 H          64.0379   81.7223    9.4587 H       1  UNL1        0.1674
     21 C          63.8683   91.0452   15.3118 C.3     1  UNL1        0.1117
     22 C          67.2216   92.3401   13.6299 C.ar    1  UNL1        0.0641
     23 C          67.8977   92.9834   14.8042 C.ar    1  UNL1        0.0158
     24 C          67.2307   92.9807   16.1477 C.ar    1  UNL1        0.0010
     25 C          65.8875   92.3346   16.3170 C.ar    1  UNL1       -0.0037
     26 C          65.2114   91.6913   15.1426 C.ar    1  UNL1       -0.0118
     27 C          65.8785   91.6940   13.7990 C.ar    1  UNL1        0.0121
     28 N          67.8886   92.3428   12.2863 N.pl3   1  UNL1       -0.2187
     29 H          68.7708   91.9206   12.1739 H       1  UNL1        0.1734
     30 C          66.5342   93.6348    9.9418 C.3     1  UNL1        0.1996
     31 S          67.2114   92.9888   11.1141 S.O2    1  UNL1        0.0558
     32 O          67.6874   91.8772   10.2265 O.2     1  UNL1       -0.1544
     33 O          66.7354   94.1004   12.0016 O.2     1  UNL1       -0.1544
@<TRIPOS>BOND
     1    30    31    1
     2    31    32    2
     3    31    33    2
     4    31    28    1
     5    28    22    1
     6    22    23   ar
     7    23    24   ar
     8    24    25   ar
     9    25    26   ar
    10    26    21    1
    11    21     1    1
    12     1     2    2
    13     1     3   am
    14     3     5    1
    15     5     6   ar
    16     6     7   ar
    17     7    10    1
    18    10    11   ar
    19    11    12   ar
    20    12    13   ar
    21    13    14   ar
    22    14    15   ar
    23    15    16   ar
    24    16    17   ar
    25    17    18    1
    26    17    19   ar
    27     7     8   ar
    28     8     9   ar
    29    26    27   ar
    30    27    22   ar
    31     9     5   ar
    32    19    10   ar
    33    19    13    1
    34    28    29    1
    35     3     4    1
    36    14    20    1
@<TRIPOS>MOLECULE
*****
 33 36 0 0 0
SMALL
GASTEIGER

@<TRIPOS>ATOM
      1 C          61.4954   87.5561   11.4311 C.2     1  UNL1        0.2320
      2 O          60.4348   88.5467   11.8106 O.2     1  UNL1       -0.2744
      3 N          62.9430   87.8932   11.6324 N.am    1  UNL1       -0.2639
      4 H          63.6391   87.2430   11.3833 H       1  UNL1        0.1567
      5 C          63.3302   89.2207   12.2133 C.ar    1  UNL1        0.1655
      6 N          63.9831   89.4438   13.5453 N.ar    1  UNL1       -0.2238
      7 C          64.1889   90.9193   13.7195 C.ar    1  UNL1        0.0914
      8 C          63.6633   91.6083   12.4952 C.ar    1  UNL1        0.0573
      9 S          63.1326   90.5586   11.5643 S.2     1  UNL1       -0.0508
     10 C          64.8111   91.5884   14.9091 C.ar    1  UNL1        0.0425
     11 C          64.1507   91.8203   16.2358 C.ar    1  UNL1        0.1021
     12 N          65.1344   92.5183   17.1274 N.ar    1  UNL1       -0.2269
     13 C          66.4028   92.7177   16.3519 C.ar    1  UNL1        0.1428
     14 N          67.7138   93.3484   16.7169 N.ar    1  UNL1       -0.3373
     15 C          68.8251   93.4044   15.7110 C.ar    1  UNL1        0.0758
     16 C          68.6252   92.8296   14.3399 C.ar    1  UNL1        0.0482
     17 C          67.3142   92.1990   13.9749 C.ar    1  UNL1        0.1445
     18 F          67.1143   91.6242   12.6038 F       1  UNL1       -0.2040
     19 C          66.2029   92.1430   14.9808 C.ar    1  UNL1        0.0644
     20 H          67.8450   93.7256   17.6168 H       1  UNL1        0.1674
     21 C          61.1082   86.2285   10.8501 C.3     1  UNL1        0.1117
     22 C          63.5211   83.1967   11.7082 C.ar    1  UNL1        0.0641
     23 C          64.1968   82.9890   10.3853 C.ar    1  UNL1        0.0158
     24 C          63.8431   83.8610    9.2173 C.ar    1  UNL1        0.0010
     25 C          62.8135   84.9409    9.3722 C.ar    1  UNL1       -0.0037
     26 C          62.1377   85.1486   10.6952 C.ar    1  UNL1       -0.0118
     27 C          62.4916   84.2765   11.8632 C.ar    1  UNL1        0.0121
     28 N          63.8749   82.3246   12.8763 N.pl3   1  UNL1       -0.2187
     29 H          64.7054   82.4881   13.3790 H       1  UNL1        0.1734
     30 C          62.0515   80.0821   13.6807 C.3     1  UNL1        0.1996
     31 S          62.9632   81.2034   13.2784 S.O2    1  UNL1        0.0558
     32 O          63.0724   81.6291   14.7127 O.2     1  UNL1       -0.1544
     33 O          62.8541   80.7776   11.8443 O.2     1  UNL1       -0.1544
@<TRIPOS>BOND
     1    30    31    1
     2    31    32    2
     3    31    33    2
     4    31    28    1
     5    28    22    1
     6    22    23   ar
     7    23    24   ar
     8    24    25   ar
     9    25    26   ar
    10    26    21    1
    11    21     1    1
    12     1     2    2
    13     1     3   am
    14     3     5    1
    15     5     6   ar
    16     6     7   ar
    17     7    10    1
    18    10    11   ar
    19    11    12   ar
    20    12    13   ar
    21    13    14   ar
    22    14    15   ar
    23    15    16   ar
    24    16    17   ar
    25    17    18    1
    26    17    19   ar
    27     7     8   ar
    28     8     9   ar
    29    26    27   ar
    30    27    22   ar
    31     9     5   ar
    32    19    10   ar
    33    19    13    1
    34    28    29    1
    35     3     4    1
    36    14    20    1
@<TRIPOS>MOLECULE
*****
 33 36 0 0 0
SMALL
GASTEIGER

@<TRIPOS>ATOM
      1 C          62.8730   90.1133   12.3214 C.2     1  UNL1        0.2320
      2 O          62.1744   89.7332   13.5932 O.2     1  UNL1       -0.2744
      3 N          63.1395   89.0744   11.2728 N.am    1  UNL1       -0.2639
      4 H          63.5981   89.3238   10.4381 H       1  UNL1        0.1567
      5 C          62.7073   87.6555   11.4958 C.ar    1  UNL1        0.1655
      6 N          63.0832   86.7925   12.6637 N.ar    1  UNL1       -0.2238
      7 C          62.4315   85.4541   12.4799 C.ar    1  UNL1        0.0914
      8 C          61.6528   85.4897   11.1984 C.ar    1  UNL1        0.0573
      9 S          61.8233   86.8503   10.5902 S.2     1  UNL1       -0.0508
     10 C          62.5395   84.2851   13.4137 C.ar    1  UNL1        0.0425
     11 C          62.5346   84.3503   14.9122 C.ar    1  UNL1        0.1021
     12 N          62.6634   82.9512   15.4374 N.ar    1  UNL1       -0.2269
     13 C          62.7480   82.0213   14.2635 C.ar    1  UNL1        0.1428
     14 N          62.8849   80.5304   14.1719 N.ar    1  UNL1       -0.3373
     15 C          62.9452   79.8639   12.8295 C.ar    1  UNL1        0.0758
     16 C          62.8686   80.6883   11.5787 C.ar    1  UNL1        0.0482
     17 C          62.7317   82.1792   11.6703 C.ar    1  UNL1        0.1445
     18 F          62.6551   83.0036   10.4195 F       1  UNL1       -0.2040
     19 C          62.6714   82.8457   13.0127 C.ar    1  UNL1        0.0644
     20 H          62.9351   79.9893   14.9928 H       1  UNL1        0.1674
     21 C          63.3053   91.5322   12.0983 C.3     1  UNL1        0.1117
     22 C          67.0715   91.9754   13.2684 C.ar    1  UNL1        0.0641
     23 C          67.6843   92.5667   12.0336 C.ar    1  UNL1        0.0158
     24 C          66.8374   92.8132   10.8203 C.ar    1  UNL1        0.0010
     25 C          65.3777   92.4684   10.8418 C.ar    1  UNL1       -0.0037
     26 C          64.7649   91.8770   12.0768 C.ar    1  UNL1       -0.0118
     27 C          65.6119   91.6306   13.2900 C.ar    1  UNL1        0.0121
     28 N          67.9184   91.7290   14.4817 N.pl3   1  UNL1       -0.2187
     29 H          68.1266   90.8072   14.7577 H       1  UNL1        0.1734
     30 C          68.9775   94.0450   16.0674 C.3     1  UNL1        0.1996
     31 S          68.4480   92.8870   15.2745 S.O2    1  UNL1        0.0558
     32 O          67.1633   92.9458   16.0467 O.2     1  UNL1       -0.1544
     33 O          69.7326   92.8282   14.5024 O.2     1  UNL1       -0.1544
@<TRIPOS>BOND
     1    30    31    1
     2    31    32    2
     3    31    33    2
     4    31    28    1
     5    28    22    1
     6    22    23   ar
     7    23    24   ar
     8    24    25   ar
     9    25    26   ar
    10    26    21    1
    11    21     1    1
    12     1     2    2
    13     1     3   am
    14     3     5    1
    15     5     6   ar
    16     6     7   ar
    17     7    10    1
    18    10    11   ar
    19    11    12   ar
    20    12    13   ar
    21    13    14   ar
    22    14    15   ar
    23    15    16   ar
    24    16    17   ar
    25    17    18    1
    26    17    19   ar
    27     7     8   ar
    28     8     9   ar
    29    26    27   ar
    30    27    22   ar
    31     9     5   ar
    32    19    10   ar
    33    19    13    1
    34    28    29    1
    35     3     4    1
    36    14    20    1
@<TRIPOS>MOLECULE
*****
 33 36 0 0 0
SMALL
GASTEIGER

@<TRIPOS>ATOM
      1 C          63.8091   89.3957   14.5572 C.2     1  UNL1        0.2320
      2 O          63.1573   88.5512   15.6116 O.2     1  UNL1       -0.2744
      3 N          63.8805   88.9051   13.1415 N.am    1  UNL1       -0.2639
      4 H          64.3083   89.4594   12.4495 H       1  UNL1        0.1567
      5 C          63.3000   87.5701   12.7803 C.ar    1  UNL1        0.1655
      6 N          63.4539   86.3004   13.5640 N.ar    1  UNL1       -0.2238
      7 C          62.7127   85.2159   12.8400 C.ar    1  UNL1        0.0914
      8 C          62.1007   85.8152   11.6086 C.ar    1  UNL1        0.0573
      9 S          62.4636   87.2701   11.5717 S.2     1  UNL1       -0.0508
     10 C          62.6028   83.7835   13.2715 C.ar    1  UNL1        0.0425
     11 C          62.2879   83.3016   14.6566 C.ar    1  UNL1        0.1021
     12 N          62.2790   81.8018   14.6347 N.ar    1  UNL1       -0.2269
     13 C          62.5883   81.3568   13.2360 C.ar    1  UNL1        0.1428
     14 N          62.7137   79.9945   12.6208 N.ar    1  UNL1       -0.3373
     15 C          63.0391   79.8571   11.1630 C.ar    1  UNL1        0.0758
     16 C          63.2392   81.0818   10.3205 C.ar    1  UNL1        0.0482
     17 C          63.1139   82.4441   10.9357 C.ar    1  UNL1        0.1445
     18 F          63.3140   83.6688   10.0932 F       1  UNL1       -0.2040
     19 C          62.7885   82.5815   12.3935 C.ar    1  UNL1        0.0644
     20 H          62.5823   79.1907   13.1738 H       1  UNL1        0.1674
     21 C          64.3896   90.7308   14.9185 C.3     1  UNL1        0.1117
     22 C          66.0951   92.6257   11.8769 C.ar    1  UNL1        0.0641
     23 C          67.5345   92.6004   12.2983 C.ar    1  UNL1        0.0158
     24 C          67.9256   91.9518   13.5931 C.ar    1  UNL1        0.0010
     25 C          66.8773   91.3286   14.4666 C.ar    1  UNL1       -0.0037
     26 C          65.4379   91.3540   14.0451 C.ar    1  UNL1       -0.0118
     27 C          65.0468   92.0025   12.7502 C.ar    1  UNL1        0.0121
     28 N          65.7040   93.2742   10.5821 N.pl3   1  UNL1       -0.2187
     29 H          64.9225   92.9441   10.0826 H       1  UNL1        0.1734
     30 C          67.3032   95.5771    9.5147 C.3     1  UNL1        0.1996
     31 S          66.5036   94.4257   10.0485 S.O2    1  UNL1        0.0558
     32 O          67.2399   93.4910    9.1350 O.2     1  UNL1       -0.1544
     33 O          65.7673   95.3603   10.9618 O.2     1  UNL1       -0.1544
@<TRIPOS>BOND
     1    30    31    1
     2    31    32    2
     3    31    33    2
     4    31    28    1
     5    28    22    1
     6    22    23   ar
     7    23    24   ar
     8    24    25   ar
     9    25    26   ar
    10    26    21    1
    11    21     1    1
    12     1     2    2
    13     1     3   am
    14     3     5    1
    15     5     6   ar
    16     6     7   ar
    17     7    10    1
    18    10    11   ar
    19    11    12   ar
    20    12    13   ar
    21    13    14   ar
    22    14    15   ar
    23    15    16   ar
    24    16    17   ar
    25    17    18    1
    26    17    19   ar
    27     7     8   ar
    28     8     9   ar
    29    26    27   ar
    30    27    22   ar
    31     9     5   ar
    32    19    10   ar
    33    19    13    1
    34    28    29    1
    35     3     4    1
    36    14    20    1
@<TRIPOS>MOLECULE
*****
 33 36 0 0 0
SMALL
GASTEIGER

@<TRIPOS>ATOM
      1 C          63.2699   89.9664   13.4803 C.2     1  UNL1        0.2320
      2 O          63.4513   88.4777   13.4518 O.2     1  UNL1       -0.2744
      3 N          62.1148   90.5952   12.7591 N.am    1  UNL1       -0.2639
      4 H          61.9957   91.5723   12.7779 H       1  UNL1        0.1567
      5 C          61.1410   89.7353   12.0093 C.ar    1  UNL1        0.1655
      6 N          61.4054   89.0279   10.7133 N.ar    1  UNL1       -0.2238
      7 C          60.1597   88.2872   10.3269 C.ar    1  UNL1        0.0914
      8 C          59.1252   88.5368   11.3840 C.ar    1  UNL1        0.0573
      9 S          59.7317   89.4318   12.4238 S.2     1  UNL1       -0.0508
     10 C          59.9798   87.4448    9.0989 C.ar    1  UNL1        0.0425
     11 C          58.7715   87.4281    8.2103 C.ar    1  UNL1        0.1021
     12 N          59.0217   86.4442    7.1061 N.ar    1  UNL1       -0.2269
     13 C          60.3847   85.8527    7.3123 C.ar    1  UNL1        0.1428
     14 N          61.1630   84.8309    6.5377 N.ar    1  UNL1       -0.3373
     15 C          62.5336   84.4276    6.9947 C.ar    1  UNL1        0.0758
     16 C          63.1257   85.0460    8.2263 C.ar    1  UNL1        0.0482
     17 C          62.3474   86.0678    9.0009 C.ar    1  UNL1        0.1445
     18 F          62.9396   86.6862   10.2325 F       1  UNL1       -0.2040
     19 C          60.9768   86.4711    8.5439 C.ar    1  UNL1        0.0644
     20 H          60.7744   84.4250    5.7293 H       1  UNL1        0.1674
     21 C          64.2438   90.8264   14.2302 C.3     1  UNL1        0.1117
     22 C          66.4186   92.6425   11.4513 C.ar    1  UNL1        0.0641
     23 C          67.7748   92.6174   12.0915 C.ar    1  UNL1        0.0158
     24 C          67.9541   91.9953   13.4446 C.ar    1  UNL1        0.0010
     25 C          66.7771   91.3983   14.1575 C.ar    1  UNL1       -0.0037
     26 C          65.4207   91.4234   13.5173 C.ar    1  UNL1       -0.0118
     27 C          65.2415   92.0455   12.1641 C.ar    1  UNL1        0.0121
     28 N          66.2393   93.2646   10.0982 N.pl3   1  UNL1       -0.2187
     29 H          65.7993   92.7578    9.3778 H       1  UNL1        0.1734
     30 C          67.2214   96.0528    9.5870 C.3     1  UNL1        0.1996
     31 S          66.7303   94.6587    9.8427 S.O2    1  UNL1        0.0558
     32 O          67.7613   94.1218    8.8945 O.2     1  UNL1       -0.1544
     33 O          65.6994   95.1957   10.7907 O.2     1  UNL1       -0.1544
@<TRIPOS>BOND
     1    30    31    1
     2    31    32    2
     3    31    33    2
     4    31    28    1
     5    28    22    1
     6    22    23   ar
     7    23    24   ar
     8    24    25   ar
     9    25    26   ar
    10    26    21    1
    11    21     1    1
    12     1     2    2
    13     1     3   am
    14     3     5    1
    15     5     6   ar
    16     6     7   ar
    17     7    10    1
    18    10    11   ar
    19    11    12   ar
    20    12    13   ar
    21    13    14   ar
    22    14    15   ar
    23    15    16   ar
    24    16    17   ar
    25    17    18    1
    26    17    19   ar
    27     7     8   ar
    28     8     9   ar
    29    26    27   ar
    30    27    22   ar
    31     9     5   ar
    32    19    10   ar
    33    19    13    1
    34    28    29    1
    35     3     4    1
    36    14    20    1
@<TRIPOS>MOLECULE
*****
 33 36 0 0 0
SMALL
GASTEIGER

@<TRIPOS>ATOM
      1 C          63.3090   89.2963   13.2365 C.2     1  UNL1        0.2320
      2 O          63.9943   88.1018   13.8309 O.2     1  UNL1       -0.2744
      3 N          62.4079   89.1302   12.0490 N.am    1  UNL1       -0.2639
      4 H          61.9581   89.9142   11.6589 H       1  UNL1        0.1567
      5 C          62.1920   87.7695   11.4559 C.ar    1  UNL1        0.1655
      6 N          62.9460   86.5227   11.8120 N.ar    1  UNL1       -0.2238
      7 C          62.4043   85.3993   10.9787 C.ar    1  UNL1        0.0914
      8 C          61.3153   85.9518   10.1075 C.ar    1  UNL1        0.0573
      9 S          61.1841   87.4166   10.4024 S.2     1  UNL1       -0.0508
     10 C          62.8697   83.9737   11.0109 C.ar    1  UNL1        0.0425
     11 C          63.5097   83.2293    9.8767 C.ar    1  UNL1        0.1021
     12 N          63.8123   81.8378   10.3478 N.ar    1  UNL1       -0.2269
     13 C          63.3594   81.7221   11.7731 C.ar    1  UNL1        0.1428
     14 N          63.4021   80.5852   12.7507 N.ar    1  UNL1       -0.3373
     15 C          62.8623   80.7685   14.1381 C.ar    1  UNL1        0.0758
     16 C          62.2798   82.0886   14.5479 C.ar    1  UNL1        0.0482
     17 C          62.2370   83.2254   13.5703 C.ar    1  UNL1        0.1445
     18 F          61.6544   84.5455   13.9801 F       1  UNL1       -0.2040
     19 C          62.7768   83.0421   12.1829 C.ar    1  UNL1        0.0644
     20 H          63.7845   79.7188   12.4817 H       1  UNL1        0.1674
     21 C          63.5249   90.6571   13.8297 C.3     1  UNL1        0.1117
     22 C          66.5468   93.2004   13.4423 C.ar    1  UNL1        0.0641
     23 C          66.4975   93.4769   11.9688 C.ar    1  UNL1        0.0158
     24 C          65.4573   92.8135   11.1156 C.ar    1  UNL1        0.0010
     25 C          64.4664   91.8735   11.7359 C.ar    1  UNL1       -0.0037
     26 C          64.5157   91.5970   13.2094 C.ar    1  UNL1       -0.0118
     27 C          65.5560   92.2605   14.0626 C.ar    1  UNL1        0.0121
     28 N          67.5869   93.8638   14.2955 N.pl3   1  UNL1       -0.2187
     29 H          67.7834   94.8212   14.1770 H       1  UNL1        0.1734
     30 C          69.0687   92.2731   16.3629 C.3     1  UNL1        0.1996
     31 S          68.3278   93.0685   15.3292 S.O2    1  UNL1        0.0558
     32 O          69.2900   92.5991   14.2785 O.2     1  UNL1       -0.1544
     33 O          67.3657   93.5378   16.3799 O.2     1  UNL1       -0.1544
@<TRIPOS>BOND
     1    30    31    1
     2    31    32    2
     3    31    33    2
     4    31    28    1
     5    28    22    1
     6    22    23   ar
     7    23    24   ar
     8    24    25   ar
     9    25    26   ar
    10    26    21    1
    11    21     1    1
    12     1     2    2
    13     1     3   am
    14     3     5    1
    15     5     6   ar
    16     6     7   ar
    17     7    10    1
    18    10    11   ar
    19    11    12   ar
    20    12    13   ar
    21    13    14   ar
    22    14    15   ar
    23    15    16   ar
    24    16    17   ar
    25    17    18    1
    26    17    19   ar
    27     7     8   ar
    28     8     9   ar
    29    26    27   ar
    30    27    22   ar
    31     9     5   ar
    32    19    10   ar
    33    19    13    1
    34    28    29    1
    35     3     4    1
    36    14    20    1
