@<TRIPOS>MOLECULE
*****
 43 47 0 0 0
SMALL
GASTEIGER

@<TRIPOS>ATOM
      1 N          61.4786   88.0687   10.4942 N.ar    1  UNL1       -0.2252
      2 C          62.7083   88.9022   10.7015 C.ar    1  UNL1        0.1148
      3 C          62.4935   89.7503   11.9200 C.ar    1  UNL1        0.1134
      4 N          61.1310   89.4409   12.4656 N.ar    1  UNL1       -0.1318
      5 N          60.5037   88.4016   11.5845 N.ar    1  UNL1       -0.0638
      6 C          63.4697   90.7350   12.4922 C.3     1  UNL1        0.0813
      7 C          63.3430   91.5779   11.2579 C.3     1  UNL1        0.0220
      8 C          63.5963   89.8921   13.7265 C.3     1  UNL1        0.0187
      9 C          64.0778   88.4724   13.7790 C.3     1  UNL1        0.0017
     10 C          64.0428   88.0238   15.2100 C.3     1  UNL1        0.0001
     11 C          63.5397   89.1661   16.0417 C.3     1  UNL1        0.0001
     12 C          63.2637   90.3208   15.1249 C.3     1  UNL1        0.0017
     13 N          64.4459   91.7196   13.0644 N.3     1  UNL1       -0.2901
     14 H          64.6083   91.4442   14.0330 H       1  UNL1        0.1239
     15 C          65.7947   91.8927   12.4315 C.3     1  UNL1        0.1155
     16 C          66.1401   93.1793   11.7419 C.ar    1  UNL1        0.0781
     17 C          66.1042   94.4712   12.5030 C.ar    1  UNL1        0.0369
     18 C          66.4496   95.7579   11.8135 C.ar    1  UNL1        0.1033
     19 N          66.8307   95.7524   10.3627 N.ar    1  UNL1       -0.2107
     20 N          67.2186   96.8551    9.4228 N.ar    1  UNL1       -0.1621
     21 C          67.4941   96.2446    8.0806 C.ar    1  UNL1        0.1237
     22 C          67.2765   94.7645    8.1911 C.ar    1  UNL1        0.0612
     23 C          66.8666   94.4603    9.6016 C.ar    1  UNL1        0.1651
     24 N          66.5212   93.1738   10.2912 N.ar    1  UNL1       -0.2294
     25 C          61.2618   87.0764    9.3904 C.3     1  UNL1        0.1676
     26 C          62.1378   85.8629    9.2899 C.2     1  UNL1        0.2165
     27 O          62.3569   85.2042    7.9602 O.2     1  UNL1       -0.2901
     28 C          62.7946   85.3081   10.5190 C.3     1  UNL1        0.2712
     29 O          63.2705   83.8857   10.5379 O.3     1  UNL1       -0.4627
     30 C          62.9813   83.0138   11.7237 C.ar    1  UNL1        0.1981
     31 C          62.8725   81.5275   11.5532 C.ar    1  UNL1        0.2034
     32 F          63.0531   80.9130   10.1968 F       1  UNL1       -0.1985
     33 C          62.5833   80.6558   12.7391 C.ar    1  UNL1        0.1728
     34 F          62.4746   79.1695   12.5685 F       1  UNL1       -0.2016
     35 C          62.4027   81.2702   14.0955 C.ar    1  UNL1        0.0641
     36 C          62.5114   82.7565   14.2660 C.ar    1  UNL1        0.1728
     37 F          62.3309   83.3710   15.6224 F       1  UNL1       -0.2016
     38 C          62.8007   83.6283   13.0802 C.ar    1  UNL1        0.2034
     39 F          62.9094   85.1146   13.2507 F       1  UNL1       -0.1985
     40 C          60.1690   87.2976    8.3870 C.3     1  UNL1        0.0321
     41 C          59.7303   88.6922    8.0511 C.3     1  UNL1        0.0024
     42 C          59.4267   90.1350    5.9118 C.3     1  UNL1        0.0000
     43 C          59.0213   88.9642    6.7575 C.3     1  UNL1        0.0001
@<TRIPOS>BOND
     1    42    43    1
     2    43    41    1
     3    41    40    1
     4    40    25    1
     5    25    26    1
     6    26    27    2
     7    26    28    1
     8    28    29    1
     9    29    30    1
    10    30    31   ar
    11    31    32    1
    12    31    33   ar
    13    33    34    1
    14    33    35   ar
    15    35    36   ar
    16    36    37    1
    17    36    38   ar
    18    38    39    1
    19    25     1    1
    20     1     2   ar
    21     2     3   ar
    22     3     6    1
    23     6     7    1
    24     6    13    1
    25    13    15    1
    26    15    16    1
    27    16    17   ar
    28    17    18   ar
    29    18    19   ar
    30    19    20   ar
    31    20    21   ar
    32    21    22   ar
    33    22    23   ar
    34    23    24   ar
    35     6     8    1
    36     8     9    1
    37     9    10    1
    38    10    11    1
    39    11    12    1
    40     3     4   ar
    41     4     5   ar
    42    38    30   ar
    43     5     1   ar
    44    24    16   ar
    45    12     8    1
    46    23    19   ar
    47    13    14    1
@<TRIPOS>MOLECULE
*****
 43 47 0 0 0
SMALL
GASTEIGER

@<TRIPOS>ATOM
      1 N          61.5165   88.0674   10.4766 N.ar    1  UNL1       -0.2252
      2 C          62.7486   88.8949   10.6934 C.ar    1  UNL1        0.1148
      3 C          62.5338   89.7339   11.9182 C.ar    1  UNL1        0.1134
      4 N          61.1690   89.4248   12.4582 N.ar    1  UNL1       -0.1318
      5 N          60.5402   88.3949   11.5673 N.ar    1  UNL1       -0.0638
      6 C          63.5122   90.7104   12.5007 C.3     1  UNL1        0.0813
      7 C          63.4114   91.5502   11.2618 C.3     1  UNL1        0.0220
      8 C          63.6129   89.8707   13.7395 C.3     1  UNL1        0.0187
      9 C          64.0846   88.4483   13.8044 C.3     1  UNL1        0.0017
     10 C          64.0228   88.0044   15.2359 C.3     1  UNL1        0.0001
     11 C          63.5129   89.1525   16.0556 C.3     1  UNL1        0.0001
     12 C          63.2595   90.3059   15.1308 C.3     1  UNL1        0.0017
     13 N          64.4905   91.6870   13.0831 N.3     1  UNL1       -0.2901
     14 H          64.6600   91.3953   14.0457 H       1  UNL1        0.1239
     15 C          65.8347   91.8734   12.4441 C.3     1  UNL1        0.1155
     16 C          66.1655   93.1649   11.7565 C.ar    1  UNL1        0.0781
     17 C          66.1056   94.4563   12.5171 C.ar    1  UNL1        0.0369
     18 C          66.4365   95.7478   11.8295 C.ar    1  UNL1        0.1033
     19 N          66.8272   95.7478   10.3813 N.ar    1  UNL1       -0.2107
     20 N          67.2049   96.8560    9.4436 N.ar    1  UNL1       -0.1621
     21 C          67.4982   96.2494    8.1035 C.ar    1  UNL1        0.1237
     22 C          67.3018   94.7663    8.2129 C.ar    1  UNL1        0.0612
     23 C          66.8871   94.4563    9.6207 C.ar    1  UNL1        0.1651
     24 N          66.5562   93.1649   10.3083 N.ar    1  UNL1       -0.2294
     25 C          61.2988   87.0849    9.3643 C.3     1  UNL1        0.1676
     26 C          62.2106   85.9027    9.2185 C.2     1  UNL1        0.2165
     27 O          62.4075   85.2689    7.8733 O.2     1  UNL1       -0.2901
     28 C          62.9255   85.3544   10.4178 C.3     1  UNL1        0.2712
     29 O          63.2320   83.8885   10.5029 O.3     1  UNL1       -0.4627
     30 C          62.9291   83.1309   11.7616 C.ar    1  UNL1        0.1981
     31 C          62.7836   83.8644   13.0619 C.ar    1  UNL1        0.2034
     32 F          62.9410   85.3555   13.1036 F       1  UNL1       -0.1985
     33 C          62.4806   83.1067   14.3205 C.ar    1  UNL1        0.1728
     34 F          62.3351   83.8401   15.6208 F       1  UNL1       -0.2016
     35 C          62.3232   81.6155   14.2789 C.ar    1  UNL1        0.0641
     36 C          62.4688   80.8821   12.9785 C.ar    1  UNL1        0.1728
     37 F          62.3114   79.3909   12.9368 F       1  UNL1       -0.2016
     38 C          62.7717   81.6398   11.7199 C.ar    1  UNL1        0.2034
     39 F          62.9172   80.9063   10.4196 F       1  UNL1       -0.1985
     40 C          60.1692   87.2844    8.3977 C.3     1  UNL1        0.0321
     41 C          59.6703   88.6679    8.1024 C.3     1  UNL1        0.0024
     42 C          59.5527   90.0561    5.9095 C.3     1  UNL1        0.0000
     43 C          59.0152   88.9637    6.7858 C.3     1  UNL1        0.0001
@<TRIPOS>BOND
     1    42    43    1
     2    43    41    1
     3    41    40    1
     4    40    25    1
     5    25    26    1
     6    26    27    2
     7    26    28    1
     8    28    29    1
     9    29    30    1
    10    30    31   ar
    11    31    32    1
    12    31    33   ar
    13    33    34    1
    14    33    35   ar
    15    35    36   ar
    16    36    37    1
    17    36    38   ar
    18    38    39    1
    19    25     1    1
    20     1     2   ar
    21     2     3   ar
    22     3     6    1
    23     6     7    1
    24     6    13    1
    25    13    15    1
    26    15    16    1
    27    16    17   ar
    28    17    18   ar
    29    18    19   ar
    30    19    20   ar
    31    20    21   ar
    32    21    22   ar
    33    22    23   ar
    34    23    24   ar
    35     6     8    1
    36     8     9    1
    37     9    10    1
    38    10    11    1
    39    11    12    1
    40     3     4   ar
    41     4     5   ar
    42    38    30   ar
    43     5     1   ar
    44    24    16   ar
    45    12     8    1
    46    23    19   ar
    47    13    14    1
@<TRIPOS>MOLECULE
*****
 43 47 0 0 0
SMALL
GASTEIGER

@<TRIPOS>ATOM
      1 N          63.8525   86.7705   14.3725 N.ar    1  UNL1       -0.2252
      2 C          64.2034   87.9181   13.4726 C.ar    1  UNL1        0.1148
      3 C          64.0754   89.1849   14.2655 C.ar    1  UNL1        0.1134
      4 N          63.6454   88.8203   15.6554 N.ar    1  UNL1       -0.1318
      5 N          63.5076   87.3281   15.7216 N.ar    1  UNL1       -0.0638
      6 C          64.3323   90.5727   13.7575 C.3     1  UNL1        0.0813
      7 C          65.3634   90.7737   14.8282 C.3     1  UNL1        0.0220
      8 C          63.3011   90.3718   12.6869 C.3     1  UNL1        0.0187
      9 C          61.8900   89.9087   12.8976 C.3     1  UNL1        0.0017
     10 C          61.2168   89.8493   11.5585 C.3     1  UNL1        0.0001
     11 C          62.2118   90.2757   10.5201 C.3     1  UNL1        0.0001
     12 C          63.5000   90.5986   11.2175 C.3     1  UNL1        0.0017
     13 N          64.5892   91.9605   13.2496 N.3     1  UNL1       -0.2901
     14 H          64.0824   92.5976   13.8643 H       1  UNL1        0.1239
     15 C          65.9945   92.4764   13.1551 C.3     1  UNL1        0.1155
     16 C          66.4577   93.1663   11.9062 C.ar    1  UNL1        0.0781
     17 C          67.1586   92.3859   10.8341 C.ar    1  UNL1        0.0369
     18 C          67.6218   93.0759    9.5853 C.ar    1  UNL1        0.1033
     19 N          67.3839   94.5463    9.4087 N.ar    1  UNL1       -0.2107
     20 N          67.7242   95.4914    8.2947 N.ar    1  UNL1       -0.1621
     21 C          67.2336   96.8560    8.6784 C.ar    1  UNL1        0.1237
     22 C          66.5900   96.7542   10.0295 C.ar    1  UNL1        0.0612
     23 C          66.6829   95.3268   10.4809 C.ar    1  UNL1        0.1651
     24 N          66.2198   94.6368   11.7296 N.ar    1  UNL1       -0.2294
     25 C          63.8473   85.3200   13.9905 C.3     1  UNL1        0.1676
     26 C          63.4594   84.9119   12.6002 C.2     1  UNL1        0.2165
     27 O          64.3161   83.9470   11.8353 O.2     1  UNL1       -0.2901
     28 C          62.2149   85.4686   11.9747 C.3     1  UNL1        0.2712
     29 O          62.3175   86.4916   10.8825 O.3     1  UNL1       -0.4627
     30 C          61.7304   86.2080    9.5317 C.ar    1  UNL1        0.1981
     31 C          60.3602   86.7127    9.1883 C.ar    1  UNL1        0.2034
     32 F          59.5771   87.5012   10.1959 F       1  UNL1       -0.1985
     33 C          59.7732   86.4290    7.8375 C.ar    1  UNL1        0.1728
     34 F          58.4030   86.9337    7.4941 F       1  UNL1       -0.2016
     35 C          60.5562   85.6405    6.8299 C.ar    1  UNL1        0.0641
     36 C          61.9264   85.1357    7.1732 C.ar    1  UNL1        0.1728
     37 F          62.7094   84.3472    6.1657 F       1  UNL1       -0.2016
     38 C          62.5134   85.4195    8.5241 C.ar    1  UNL1        0.2034
     39 F          63.8836   84.9147    8.8675 F       1  UNL1       -0.1985
     40 C          64.2301   84.2775   14.9988 C.3     1  UNL1        0.0321
     41 C          63.2985   83.1386   15.2907 C.3     1  UNL1        0.0024
     42 C          62.0002   81.5807   13.6667 C.3     1  UNL1        0.0000
     43 C          63.2667   81.9444   14.3836 C.3     1  UNL1        0.0001
@<TRIPOS>BOND
     1    42    43    1
     2    43    41    1
     3    41    40    1
     4    40    25    1
     5    25    26    1
     6    26    27    2
     7    26    28    1
     8    28    29    1
     9    29    30    1
    10    30    31   ar
    11    31    32    1
    12    31    33   ar
    13    33    34    1
    14    33    35   ar
    15    35    36   ar
    16    36    37    1
    17    36    38   ar
    18    38    39    1
    19    25     1    1
    20     1     2   ar
    21     2     3   ar
    22     3     6    1
    23     6     7    1
    24     6    13    1
    25    13    15    1
    26    15    16    1
    27    16    17   ar
    28    17    18   ar
    29    18    19   ar
    30    19    20   ar
    31    20    21   ar
    32    21    22   ar
    33    22    23   ar
    34    23    24   ar
    35     6     8    1
    36     8     9    1
    37     9    10    1
    38    10    11    1
    39    11    12    1
    40     3     4   ar
    41     4     5   ar
    42    38    30   ar
    43     5     1   ar
    44    24    16   ar
    45    12     8    1
    46    23    19   ar
    47    13    14    1
@<TRIPOS>MOLECULE
*****
 43 47 0 0 0
SMALL
GASTEIGER

@<TRIPOS>ATOM
      1 N          61.4395   87.2363    9.9268 N.ar    1  UNL1       -0.2252
      2 C          62.2932   88.4680    9.9896 C.ar    1  UNL1        0.1148
      3 C          62.0277   89.1497   11.2992 C.ar    1  UNL1        0.1134
      4 N          61.0101   88.3391   12.0457 N.ar    1  UNL1       -0.1318
      5 N          60.6465   87.1566   11.1975 N.ar    1  UNL1       -0.0638
      6 C          62.6677   90.4189   11.7781 C.3     1  UNL1        0.0813
      7 C          62.1561   91.1352   10.5635 C.3     1  UNL1        0.0220
      8 C          63.1792   89.7027   12.9927 C.3     1  UNL1        0.0187
      9 C          63.1470   90.2203   14.4002 C.3     1  UNL1        0.0017
     10 C          63.7607   89.1806   15.2905 C.3     1  UNL1        0.0001
     11 C          64.1722   88.0206   14.4332 C.3     1  UNL1        0.0001
     12 C          63.8128   88.3432   13.0131 C.3     1  UNL1        0.0017
     13 N          63.3076   91.6882   12.2570 N.3     1  UNL1       -0.2901
     14 H          63.5369   91.5492   13.2412 H       1  UNL1        0.1239
     15 C          64.5505   92.1993   11.5908 C.3     1  UNL1        0.1155
     16 C          65.8335   92.2869   12.3631 C.ar    1  UNL1        0.0781
     17 C          67.1367   91.9714   11.6908 C.ar    1  UNL1        0.0369
     18 C          68.4197   92.0591   12.4631 C.ar    1  UNL1        0.1033
     19 N          68.3993   92.4623   13.9077 N.ar    1  UNL1       -0.2107
     20 N          69.4953   92.6344   14.9172 N.ar    1  UNL1       -0.1621
     21 C          68.8695   93.0563   16.2135 C.ar    1  UNL1        0.1237
     22 C          67.3867   93.1449   16.0051 C.ar    1  UNL1        0.0612
     23 C          67.0961   92.7779   14.5800 C.ar    1  UNL1        0.1651
     24 N          65.8132   92.6902   13.8077 N.ar    1  UNL1       -0.2294
     25 C          61.3879   86.2562    8.7925 C.3     1  UNL1        0.1676
     26 C          62.4980   85.2646    8.6067 C.2     1  UNL1        0.2165
     27 O          62.7690   84.6879    7.2488 O.2     1  UNL1       -0.2901
     28 C          63.3371   84.8498    9.7788 C.3     1  UNL1        0.2712
     29 O          63.5115   83.3948   10.0989 O.3     1  UNL1       -0.4627
     30 C          63.1146   82.8707   11.4471 C.ar    1  UNL1        0.1981
     31 C          62.8620   81.4044   11.6372 C.ar    1  UNL1        0.2034
     32 F          63.0064   80.4621   10.4791 F       1  UNL1       -0.1985
     33 C          62.4651   80.8804   12.9855 C.ar    1  UNL1        0.1728
     34 F          62.2125   79.4141   13.1756 F       1  UNL1       -0.2016
     35 C          62.3207   81.8226   14.1437 C.ar    1  UNL1        0.0641
     36 C          62.5732   83.2889   13.9535 C.ar    1  UNL1        0.1728
     37 F          62.4289   84.2312   15.1117 F       1  UNL1       -0.2016
     38 C          62.9702   83.8129   12.6053 C.ar    1  UNL1        0.2034
     39 F          63.2227   85.2792   12.4151 F       1  UNL1       -0.1985
     40 C          60.2260   86.2676    7.8438 C.3     1  UNL1        0.0321
     41 C          59.2691   87.4228    7.8437 C.3     1  UNL1        0.0024
     42 C          59.0771   89.5294    6.3353 C.3     1  UNL1        0.0000
     43 C          59.7458   88.7915    7.4572 C.3     1  UNL1        0.0001
@<TRIPOS>BOND
     1    42    43    1
     2    43    41    1
     3    41    40    1
     4    40    25    1
     5    25    26    1
     6    26    27    2
     7    26    28    1
     8    28    29    1
     9    29    30    1
    10    30    31   ar
    11    31    32    1
    12    31    33   ar
    13    33    34    1
    14    33    35   ar
    15    35    36   ar
    16    36    37    1
    17    36    38   ar
    18    38    39    1
    19    25     1    1
    20     1     2   ar
    21     2     3   ar
    22     3     6    1
    23     6     7    1
    24     6    13    1
    25    13    15    1
    26    15    16    1
    27    16    17   ar
    28    17    18   ar
    29    18    19   ar
    30    19    20   ar
    31    20    21   ar
    32    21    22   ar
    33    22    23   ar
    34    23    24   ar
    35     6     8    1
    36     8     9    1
    37     9    10    1
    38    10    11    1
    39    11    12    1
    40     3     4   ar
    41     4     5   ar
    42    38    30   ar
    43     5     1   ar
    44    24    16   ar
    45    12     8    1
    46    23    19   ar
    47    13    14    1
@<TRIPOS>MOLECULE
*****
 43 47 0 0 0
SMALL
GASTEIGER

@<TRIPOS>ATOM
      1 N          62.4865   84.8065   10.7510 N.ar    1  UNL1       -0.2252
      2 C          61.4287   85.8693   10.7111 C.ar    1  UNL1        0.1148
      3 C          61.5375   86.5823    9.3958 C.ar    1  UNL1        0.1134
      4 N          62.6625   85.9602    8.6230 N.ar    1  UNL1       -0.1318
      5 N          63.2490   84.8627    9.4605 N.ar    1  UNL1       -0.0638
      6 C          60.6730   87.7181    8.9345 C.3     1  UNL1        0.0813
      7 C          60.1036   86.8461    7.8549 C.3     1  UNL1        0.0220
      8 C          61.2424   88.5900   10.0141 C.3     1  UNL1        0.0187
      9 C          62.6354   89.1448   10.0562 C.3     1  UNL1        0.0017
     10 C          62.7727   89.9579   11.3093 C.3     1  UNL1        0.0001
     11 C          61.4646   89.9056   12.0415 C.3     1  UNL1        0.0001
     12 C          60.5188   89.0601   11.2410 C.3     1  UNL1        0.0017
     13 N          59.8086   88.8538    8.4732 N.3     1  UNL1       -0.2901
     14 H          60.4182   89.6651    8.3708 H       1  UNL1        0.1239
     15 C          59.0302   88.7333    7.1966 C.3     1  UNL1        0.1155
     16 C          59.0842   89.8336    6.1786 C.ar    1  UNL1        0.0781
     17 C          57.8378   90.5888    5.8236 C.ar    1  UNL1        0.0369
     18 C          57.8919   91.6892    4.8056 C.ar    1  UNL1        0.1033
     19 N          59.1924   92.0343    4.1425 N.ar    1  UNL1       -0.2107
     20 N          59.5510   93.0613    3.1098 N.ar    1  UNL1       -0.1621
     21 C          61.0190   92.9408    2.8265 C.ar    1  UNL1        0.1237
     22 C          61.5677   91.8393    3.6842 C.ar    1  UNL1        0.0612
     23 C          60.4388   91.2790    4.4975 C.ar    1  UNL1        0.1651
     24 N          60.3847   90.1787    5.5156 N.ar    1  UNL1       -0.2294
     25 C          62.7377   83.8547   11.8827 C.3     1  UNL1        0.1676
     26 C          62.8982   84.3762   13.2800 C.2     1  UNL1        0.2165
     27 O          61.6874   84.6510   14.1217 O.2     1  UNL1       -0.2901
     28 C          64.2695   84.6231   13.8355 C.3     1  UNL1        0.2712
     29 O          64.7723   86.0272   13.9956 O.3     1  UNL1       -0.4627
     30 C          64.1775   86.9220   15.0422 C.ar    1  UNL1        0.1981
     31 C          64.1244   88.4044   14.8196 C.ar    1  UNL1        0.2034
     32 F          64.6660   88.9922   13.5503 F       1  UNL1       -0.1985
     33 C          63.5296   89.2992   15.8664 C.ar    1  UNL1        0.1728
     34 F          63.4764   90.7816   15.6438 F       1  UNL1       -0.2016
     35 C          62.9879   88.7115   17.1358 C.ar    1  UNL1        0.0641
     36 C          63.0411   87.2291   17.3584 C.ar    1  UNL1        0.1728
     37 F          62.4995   86.6414   18.6277 F       1  UNL1       -0.2016
     38 C          63.6359   86.3344   16.3117 C.ar    1  UNL1        0.2034
     39 F          63.6890   84.8520   16.5343 F       1  UNL1       -0.1985
     40 C          62.8283   82.3811   11.6173 C.3     1  UNL1        0.0321
     41 C          63.2436   81.4456   12.7139 C.3     1  UNL1        0.0024
     42 C          61.0773   81.0402   14.0897 C.3     1  UNL1        0.0000
     43 C          62.2433   80.5026   13.3140 C.3     1  UNL1        0.0001
@<TRIPOS>BOND
     1    42    43    1
     2    43    41    1
     3    41    40    1
     4    40    25    1
     5    25    26    1
     6    26    27    2
     7    26    28    1
     8    28    29    1
     9    29    30    1
    10    30    31   ar
    11    31    32    1
    12    31    33   ar
    13    33    34    1
    14    33    35   ar
    15    35    36   ar
    16    36    37    1
    17    36    38   ar
    18    38    39    1
    19    25     1    1
    20     1     2   ar
    21     2     3   ar
    22     3     6    1
    23     6     7    1
    24     6    13    1
    25    13    15    1
    26    15    16    1
    27    16    17   ar
    28    17    18   ar
    29    18    19   ar
    30    19    20   ar
    31    20    21   ar
    32    21    22   ar
    33    22    23   ar
    34    23    24   ar
    35     6     8    1
    36     8     9    1
    37     9    10    1
    38    10    11    1
    39    11    12    1
    40     3     4   ar
    41     4     5   ar
    42    38    30   ar
    43     5     1   ar
    44    24    16   ar
    45    12     8    1
    46    23    19   ar
    47    13    14    1
@<TRIPOS>MOLECULE
*****
 43 47 0 0 0
SMALL
GASTEIGER

@<TRIPOS>ATOM
      1 N          63.9530   86.7486   14.3871 N.ar    1  UNL1       -0.2252
      2 C          64.3621   88.1616   14.6805 C.ar    1  UNL1        0.1148
      3 C          63.9994   89.0050   13.4943 C.ar    1  UNL1        0.1134
      4 N          63.3660   88.1133   12.4679 N.ar    1  UNL1       -0.1318
      5 N          63.3374   86.7188   13.0196 N.ar    1  UNL1       -0.0638
      6 C          64.2295   90.4810   13.3585 C.3     1  UNL1        0.0813
      7 C          65.1914   90.4369   14.5086 C.3     1  UNL1        0.0220
      8 C          63.2676   90.5252   12.2084 C.3     1  UNL1        0.0187
      9 C          63.6048   90.8778   10.7900 C.3     1  UNL1        0.0017
     10 C          62.3451   90.7950    9.9798 C.3     1  UNL1        0.0001
     11 C          61.2294   90.3912   10.8974 C.3     1  UNL1        0.0001
     12 C          61.7995   90.2245   12.2748 C.3     1  UNL1        0.0017
     13 N          64.4596   91.9570   13.2227 N.3     1  UNL1       -0.2901
     14 H          64.0001   92.4011   14.0177 H       1  UNL1        0.1239
     15 C          65.8584   92.4966   13.1742 C.3     1  UNL1        0.1155
     16 C          66.3568   93.1779   11.9342 C.ar    1  UNL1        0.0781
     17 C          67.0738   92.3871   10.8805 C.ar    1  UNL1        0.0369
     18 C          67.5722   93.0684    9.6405 C.ar    1  UNL1        0.1033
     19 N          67.3535   94.5406    9.4543 N.ar    1  UNL1       -0.2107
     20 N          67.7286   95.4787    8.3456 N.ar    1  UNL1       -0.1621
     21 C          67.2434   96.8494    8.7141 C.ar    1  UNL1        0.1237
     22 C          66.5684   96.7584   10.0506 C.ar    1  UNL1        0.0612
     23 C          66.6364   95.3315   10.5081 C.ar    1  UNL1        0.1651
     24 N          66.1381   94.6502   11.7480 N.ar    1  UNL1       -0.2294
     25 C          64.1287   85.5720   15.3007 C.3     1  UNL1        0.1676
     26 C          64.5954   84.2574   14.7495 C.2     1  UNL1        0.2165
     27 O          65.8268   84.1972   13.8950 O.2     1  UNL1       -0.2901
     28 C          63.8309   83.0030   15.0526 C.3     1  UNL1        0.2712
     29 O          62.6519   82.6206   14.2078 O.3     1  UNL1       -0.4627
     30 C          62.8651   82.0469   12.8384 C.ar    1  UNL1        0.1981
     31 C          62.6690   80.5788   12.6013 C.ar    1  UNL1        0.2034
     32 F          62.2596   79.6843   13.7337 F       1  UNL1       -0.1985
     33 C          62.8823   80.0051   11.2318 C.ar    1  UNL1        0.1728
     34 F          62.6861   78.5371   10.9948 F       1  UNL1       -0.2016
     35 C          63.2917   80.8996   10.0994 C.ar    1  UNL1        0.0641
     36 C          63.4879   82.3677   10.3364 C.ar    1  UNL1        0.1728
     37 F          63.8973   83.2621    9.2040 F       1  UNL1       -0.2016
     38 C          63.2746   82.9413   11.7059 C.ar    1  UNL1        0.2034
     39 F          63.4707   84.4094   11.9430 F       1  UNL1       -0.1985
     40 C          63.8376   85.7100   16.7657 C.3     1  UNL1        0.0321
     41 C          62.5947   86.4164   17.2202 C.3     1  UNL1        0.0024
     42 C          62.9253   88.9890   17.0697 C.3     1  UNL1        0.0000
     43 C          62.6952   87.7546   17.8904 C.3     1  UNL1        0.0001
@<TRIPOS>BOND
     1    42    43    1
     2    43    41    1
     3    41    40    1
     4    40    25    1
     5    25    26    1
     6    26    27    2
     7    26    28    1
     8    28    29    1
     9    29    30    1
    10    30    31   ar
    11    31    32    1
    12    31    33   ar
    13    33    34    1
    14    33    35   ar
    15    35    36   ar
    16    36    37    1
    17    36    38   ar
    18    38    39    1
    19    25     1    1
    20     1     2   ar
    21     2     3   ar
    22     3     6    1
    23     6     7    1
    24     6    13    1
    25    13    15    1
    26    15    16    1
    27    16    17   ar
    28    17    18   ar
    29    18    19   ar
    30    19    20   ar
    31    20    21   ar
    32    21    22   ar
    33    22    23   ar
    34    23    24   ar
    35     6     8    1
    36     8     9    1
    37     9    10    1
    38    10    11    1
    39    11    12    1
    40     3     4   ar
    41     4     5   ar
    42    38    30   ar
    43     5     1   ar
    44    24    16   ar
    45    12     8    1
    46    23    19   ar
    47    13    14    1
@<TRIPOS>MOLECULE
*****
 43 47 0 0 0
SMALL
GASTEIGER

@<TRIPOS>ATOM
      1 N          62.5681   84.7899   11.2338 N.ar    1  UNL1       -0.2252
      2 C          62.1725   86.1928   11.5881 C.ar    1  UNL1        0.1148
      3 C          62.1118   86.9915   10.3198 C.ar    1  UNL1        0.1134
      4 N          62.4699   86.0823    9.1819 N.ar    1  UNL1       -0.1318
      5 N          62.7519   84.7217    9.7467 N.ar    1  UNL1       -0.0638
      6 C          61.7555   88.4444   10.2091 C.3     1  UNL1        0.0813
      7 C          62.8075   88.7797   11.2244 C.3     1  UNL1        0.0220
      8 C          60.7035   88.1090    9.1938 C.3     1  UNL1        0.0187
      9 C          60.1673   89.0337    8.1415 C.3     1  UNL1        0.0017
     10 C          59.1354   88.2863    7.3499 C.3     1  UNL1        0.0001
     11 C          59.0339   86.8997    7.9130 C.3     1  UNL1        0.0001
     12 C          60.0030   86.7902    9.0527 C.3     1  UNL1        0.0017
     13 N          61.3992   89.8972   10.0984 N.3     1  UNL1       -0.2901
     14 H          60.3970   89.9414    9.9142 H       1  UNL1        0.1239
     15 C          61.6702   90.8254   11.2452 C.3     1  UNL1        0.1155
     16 C          63.0524   91.3664   11.4617 C.ar    1  UNL1        0.0781
     17 C          63.8415   91.8944   10.3006 C.ar    1  UNL1        0.0369
     18 C          65.2238   92.4355   10.5171 C.ar    1  UNL1        0.1033
     19 N          65.8168   92.4484   11.8948 N.ar    1  UNL1       -0.2107
     20 N          67.1452   92.9157   12.4114 N.ar    1  UNL1       -0.1621
     21 C          67.1770   92.6765   13.8918 C.ar    1  UNL1        0.1237
     22 C          65.8682   92.0613   14.2902 C.ar    1  UNL1        0.0612
     23 C          65.0275   91.9203   13.0560 C.ar    1  UNL1        0.1651
     24 N          63.6454   91.3793   12.8394 N.ar    1  UNL1       -0.2294
     25 C          62.7483   83.6547   12.1975 C.3     1  UNL1        0.1676
     26 C          63.0012   83.9358   13.6490 C.2     1  UNL1        0.2165
     27 O          61.8640   83.9117   14.6268 O.2     1  UNL1       -0.2901
     28 C          64.3913   84.2411   14.1228 C.3     1  UNL1        0.2712
     29 O          64.8499   85.6650   14.2343 O.3     1  UNL1       -0.4627
     30 C          64.2072   86.5840   15.2304 C.ar    1  UNL1        0.1981
     31 C          63.6498   86.0324   16.5091 C.ar    1  UNL1        0.2034
     32 F          63.7351   84.5618   16.7917 F       1  UNL1       -0.1985
     33 C          63.0070   86.9515   17.5051 C.ar    1  UNL1        0.1728
     34 F          62.4496   86.4000   18.7838 F       1  UNL1       -0.2016
     35 C          62.9216   88.4222   17.2225 C.ar    1  UNL1        0.0641
     36 C          63.4791   88.9738   15.9439 C.ar    1  UNL1        0.1728
     37 F          63.3937   90.4444   15.6612 F       1  UNL1       -0.2016
     38 C          64.1218   88.0547   14.9478 C.ar    1  UNL1        0.2034
     39 F          64.6792   88.6062   13.6691 F       1  UNL1       -0.1985
     40 C          62.6755   82.2381   11.7096 C.3     1  UNL1        0.0321
     41 C          63.1880   81.1212   12.5700 C.3     1  UNL1        0.0024
     42 C          61.0287   80.8429   13.9877 C.3     1  UNL1        0.0000
     43 C          62.2241   80.2416   13.3097 C.3     1  UNL1        0.0001
@<TRIPOS>BOND
     1    42    43    1
     2    43    41    1
     3    41    40    1
     4    40    25    1
     5    25    26    1
     6    26    27    2
     7    26    28    1
     8    28    29    1
     9    29    30    1
    10    30    31   ar
    11    31    32    1
    12    31    33   ar
    13    33    34    1
    14    33    35   ar
    15    35    36   ar
    16    36    37    1
    17    36    38   ar
    18    38    39    1
    19    25     1    1
    20     1     2   ar
    21     2     3   ar
    22     3     6    1
    23     6     7    1
    24     6    13    1
    25    13    15    1
    26    15    16    1
    27    16    17   ar
    28    17    18   ar
    29    18    19   ar
    30    19    20   ar
    31    20    21   ar
    32    21    22   ar
    33    22    23   ar
    34    23    24   ar
    35     6     8    1
    36     8     9    1
    37     9    10    1
    38    10    11    1
    39    11    12    1
    40     3     4   ar
    41     4     5   ar
    42    38    30   ar
    43     5     1   ar
    44    24    16   ar
    45    12     8    1
    46    23    19   ar
    47    13    14    1
@<TRIPOS>MOLECULE
*****
 43 47 0 0 0
SMALL
GASTEIGER

@<TRIPOS>ATOM
      1 N          63.8973   86.7101   14.4406 N.ar    1  UNL1       -0.2252
      2 C          64.2480   87.9218   13.6288 C.ar    1  UNL1        0.1148
      3 C          64.0296   89.1331   14.4862 C.ar    1  UNL1        0.1134
      4 N          63.5440   88.6700   15.8277 N.ar    1  UNL1       -0.1318
      5 N          63.4622   87.1726   15.7995 N.ar    1  UNL1       -0.0638
      6 C          64.2569   90.5574   14.0742 C.3     1  UNL1        0.0813
      7 C          65.1935   90.7425   15.2312 C.3     1  UNL1        0.0220
      8 C          63.3203   90.3723   12.9173 C.3     1  UNL1        0.0187
      9 C          63.6252   90.6720   11.4795 C.3     1  UNL1        0.0017
     10 C          62.4077   90.3399   10.6686 C.3     1  UNL1        0.0001
     11 C          61.3505   89.8349   11.6052 C.3     1  UNL1        0.0001
     12 C          61.9145   89.8550   12.9950 C.3     1  UNL1        0.0017
     13 N          64.4842   91.9817   13.6623 N.3     1  UNL1       -0.2901
     14 H          63.9796   92.5653   14.3296 H       1  UNL1        0.1239
     15 C          65.8799   92.5251   13.5805 C.3     1  UNL1        0.1155
     16 C          66.3285   93.2580   12.3509 C.ar    1  UNL1        0.0781
     17 C          66.0504   94.7250   12.2088 C.ar    1  UNL1        0.0369
     18 C          66.4990   95.4579   10.9793 C.ar    1  UNL1        0.1033
     19 N          67.2257   94.7235    9.8918 N.ar    1  UNL1       -0.2107
     20 N          67.7851   95.1760    8.5757 N.ar    1  UNL1       -0.1621
     21 C          68.4090   93.9886    7.9044 C.ar    1  UNL1        0.1237
     22 C          68.2352   92.8021    8.8056 C.ar    1  UNL1        0.0612
     23 C          67.5039   93.2564   10.0340 C.ar    1  UNL1        0.1651
     24 N          67.0553   92.5236   11.2635 N.ar    1  UNL1       -0.2294
     25 C          63.9692   85.2860   13.9751 C.3     1  UNL1        0.1676
     26 C          63.4835   84.9196   12.6040 C.2     1  UNL1        0.2165
     27 O          64.2144   83.8845   11.8012 O.2     1  UNL1       -0.2901
     28 C          62.2669   85.5882   12.0356 C.3     1  UNL1        0.2712
     29 O          62.4054   86.5550   10.8971 O.3     1  UNL1       -0.4627
     30 C          61.7827   86.2432    9.5686 C.ar    1  UNL1        0.1981
     31 C          62.5448   85.4465    8.5515 C.ar    1  UNL1        0.2034
     32 F          63.9297   84.9615    8.8630 F       1  UNL1       -0.1985
     33 C          61.9220   85.1348    7.2230 C.ar    1  UNL1        0.1728
     34 F          62.6841   84.3381    6.2059 F       1  UNL1       -0.2016
     35 C          60.5371   85.6197    6.9115 C.ar    1  UNL1        0.0641
     36 C          59.7751   86.4164    7.9286 C.ar    1  UNL1        0.1728
     37 F          58.3902   86.9014    7.6172 F       1  UNL1       -0.2016
     38 C          60.3978   86.7282    9.2571 C.ar    1  UNL1        0.2034
     39 F          59.6358   87.5249   10.2742 F       1  UNL1       -0.1985
     40 C          64.5267   84.2282   14.8807 C.3     1  UNL1        0.0321
     41 C          63.6367   83.1353   15.3944 C.3     1  UNL1        0.0024
     42 C          61.9313   81.6621   14.1017 C.3     1  UNL1        0.0000
     43 C          62.2704   82.9423   14.8063 C.3     1  UNL1        0.0001
@<TRIPOS>BOND
     1    42    43    1
     2    43    41    1
     3    41    40    1
     4    40    25    1
     5    25    26    1
     6    26    27    2
     7    26    28    1
     8    28    29    1
     9    29    30    1
    10    30    31   ar
    11    31    32    1
    12    31    33   ar
    13    33    34    1
    14    33    35   ar
    15    35    36   ar
    16    36    37    1
    17    36    38   ar
    18    38    39    1
    19    25     1    1
    20     1     2   ar
    21     2     3   ar
    22     3     6    1
    23     6     7    1
    24     6    13    1
    25    13    15    1
    26    15    16    1
    27    16    17   ar
    28    17    18   ar
    29    18    19   ar
    30    19    20   ar
    31    20    21   ar
    32    21    22   ar
    33    22    23   ar
    34    23    24   ar
    35     6     8    1
    36     8     9    1
    37     9    10    1
    38    10    11    1
    39    11    12    1
    40     3     4   ar
    41     4     5   ar
    42    38    30   ar
    43     5     1   ar
    44    24    16   ar
    45    12     8    1
    46    23    19   ar
    47    13    14    1
@<TRIPOS>MOLECULE
*****
 43 47 0 0 0
SMALL
GASTEIGER

@<TRIPOS>ATOM
      1 N          63.9473   90.4478   12.6564 N.ar    1  UNL1       -0.2252
      2 C          63.0582   89.2937   12.2993 C.ar    1  UNL1        0.1148
      3 C          62.5471   89.5158   10.9067 C.ar    1  UNL1        0.1134
      4 N          63.1203   90.8072   10.4031 N.ar    1  UNL1       -0.1318
      5 N          63.9857   91.3832   11.4844 N.ar    1  UNL1       -0.0638
      6 C          61.6246   88.6063   10.1505 C.3     1  UNL1        0.0813
      7 C          62.7867   88.0886    9.3557 C.3     1  UNL1        0.0220
      8 C          60.4626   89.1239   10.9454 C.3     1  UNL1        0.0187
      9 C          59.9306   90.5261   10.9182 C.3     1  UNL1        0.0017
     10 C          58.7678   90.5990   11.8630 C.3     1  UNL1        0.0001
     11 C          58.5812   89.2419   12.4740 C.3     1  UNL1        0.0001
     12 C          59.6286   88.3302   11.9069 C.3     1  UNL1        0.0017
     13 N          60.7022   87.6967    9.3943 N.3     1  UNL1       -0.2901
     14 H          60.3782   88.2174    8.5792 H       1  UNL1        0.1239
     15 C          61.1987   86.3729    8.8933 C.3     1  UNL1        0.1155
     16 C          62.0194   85.4922    9.7883 C.ar    1  UNL1        0.0781
     17 C          63.0795   84.6075    9.2026 C.ar    1  UNL1        0.0369
     18 C          63.9002   83.7268   10.0975 C.ar    1  UNL1        0.1033
     19 N          63.6607   83.7310   11.5783 N.ar    1  UNL1       -0.2107
     20 N          64.3074   82.9762   12.7017 N.ar    1  UNL1       -0.1621
     21 C          63.6468   83.3946   13.9818 C.ar    1  UNL1        0.1237
     22 C          62.5919   84.4079   13.6495 C.ar    1  UNL1        0.0612
     23 C          62.6004   84.6158   12.1640 C.ar    1  UNL1        0.1651
     24 N          61.7798   85.4964   11.2690 N.ar    1  UNL1       -0.2294
     25 C          64.6710   90.6338   13.9570 C.3     1  UNL1        0.1676
     26 C          65.5561   91.8280   14.1588 C.2     1  UNL1        0.2165
     27 O          65.3649   92.7090   15.3576 O.2     1  UNL1       -0.2901
     28 C          66.6321   92.1412   13.1618 C.3     1  UNL1        0.2712
     29 O          66.8575   93.5573   12.7215 O.3     1  UNL1       -0.4627
     30 C          67.0775   93.8653   11.2700 C.ar    1  UNL1        0.1981
     31 C          67.8684   92.9207   10.4143 C.ar    1  UNL1        0.2034
     32 F          68.4393   91.6680   11.0101 F       1  UNL1       -0.1985
     33 C          68.0883   93.2288    8.9629 C.ar    1  UNL1        0.1728
     34 F          68.8792   92.2842    8.1072 F       1  UNL1       -0.2016
     35 C          67.5174   94.4815    8.3671 C.ar    1  UNL1        0.0641
     36 C          66.7265   95.4260    9.2228 C.ar    1  UNL1        0.1728
     37 F          66.1556   96.6787    8.6270 F       1  UNL1       -0.2016
     38 C          66.5066   95.1180   10.6742 C.ar    1  UNL1        0.2034
     39 F          65.7157   96.0626   11.5299 F       1  UNL1       -0.1985
     40 C          64.5098   89.6257   15.0559 C.3     1  UNL1        0.0321
     41 C          63.4261   89.7980   16.0788 C.3     1  UNL1        0.0024
     42 C          63.3650   87.2442   16.5522 C.3     1  UNL1        0.0000
     43 C          63.0408   88.6498   16.9637 C.3     1  UNL1        0.0001
@<TRIPOS>BOND
     1    42    43    1
     2    43    41    1
     3    41    40    1
     4    40    25    1
     5    25    26    1
     6    26    27    2
     7    26    28    1
     8    28    29    1
     9    29    30    1
    10    30    31   ar
    11    31    32    1
    12    31    33   ar
    13    33    34    1
    14    33    35   ar
    15    35    36   ar
    16    36    37    1
    17    36    38   ar
    18    38    39    1
    19    25     1    1
    20     1     2   ar
    21     2     3   ar
    22     3     6    1
    23     6     7    1
    24     6    13    1
    25    13    15    1
    26    15    16    1
    27    16    17   ar
    28    17    18   ar
    29    18    19   ar
    30    19    20   ar
    31    20    21   ar
    32    21    22   ar
    33    22    23   ar
    34    23    24   ar
    35     6     8    1
    36     8     9    1
    37     9    10    1
    38    10    11    1
    39    11    12    1
    40     3     4   ar
    41     4     5   ar
    42    38    30   ar
    43     5     1   ar
    44    24    16   ar
    45    12     8    1
    46    23    19   ar
    47    13    14    1
