@<TRIPOS>MOLECULE
*****
 35 39 0 0 0
SMALL
GASTEIGER

@<TRIPOS>ATOM
      1 C          60.1440   85.9516    8.0215 C.3     1  UNL1        0.0339
      2 C          60.6758   86.8318    9.1135 C.3     1  UNL1        0.1351
      3 C          61.5616   86.2546   10.1775 C.3     1  UNL1        0.1231
      4 N          62.0935   87.1348   11.2695 N.am    1  UNL1       -0.2724
      5 C          62.9793   86.5575   12.3336 C.2     1  UNL1        0.2507
      6 O          63.5111   87.4377   13.4256 O.2     1  UNL1       -0.2698
      7 C          61.7395   88.5921   11.2974 C.3     1  UNL1        0.1097
      8 C          60.8538   89.1693   10.2334 C.3     1  UNL1        0.1621
      9 O          60.3219   88.2891    9.1414 O.3     1  UNL1       -0.3527
     10 C          63.3332   85.1002   12.3056 C.ar    1  UNL1        0.0738
     11 C          63.6118   84.4210   10.9976 C.ar    1  UNL1        0.0175
     12 C          63.9657   82.9635   10.9697 C.ar    1  UNL1        0.0579
     13 CL         64.2443   82.2843    9.6616 Cl      1  UNL1       -0.0822
     14 C          64.0411   82.1854   12.2498 C.ar    1  UNL1        0.0130
     15 C          63.7625   82.8646   13.5579 C.ar    1  UNL1        0.0219
     16 C          63.4086   84.3220   13.5858 C.ar    1  UNL1        0.1073
     17 N          63.1300   85.0012   14.8939 N.ar    1  UNL1       -0.1477
     18 N          64.1115   85.8002   15.6991 N.ar    1  UNL1       -0.1447
     19 C          63.4091   86.2935   16.9293 C.ar    1  UNL1        0.1446
     20 C          61.9935   85.7993   16.8844 C.ar    1  UNL1        0.1446
     21 N          61.8211   85.0007   15.6265 N.ar    1  UNL1       -0.1447
     22 C          62.2714   89.4723   12.3894 C.3     1  UNL1        0.0510
     23 C          63.3542   90.4664   12.0910 C.ar    1  UNL1        0.0071
     24 C          64.3536   90.8274   13.1498 C.ar    1  UNL1        0.0011
     25 C          65.4365   91.8215   12.8513 C.ar    1  UNL1        0.0356
     26 C          65.5200   92.4547   11.4941 C.ar    1  UNL1        0.0053
     27 C          64.5206   92.0938   10.4353 C.ar    1  UNL1        0.0294
     28 C          63.4377   91.0997   10.7338 C.ar    1  UNL1        0.1362
     29 F          62.4384   90.7388    9.6750 F       1  UNL1       -0.2045
     30 C          66.4359   92.1825   13.9101 C.ar    1  UNL1        0.1622
     31 N          65.9720   92.5134   15.2977 N.ar    1  UNL1       -0.2250
     32 C          66.9713   92.8743   16.3564 C.ar    1  UNL1        0.1022
     33 C          68.4345   92.9043   16.0276 C.ar    1  UNL1        0.0414
     34 C          68.8984   92.5734   14.6401 C.ar    1  UNL1        0.1022
     35 N          67.8991   92.2124   13.5813 N.ar    1  UNL1       -0.2250
@<TRIPOS>BOND
     1     2     1    1
     2     2     3    1
     3     3     4    1
     4     4     5   am
     5     5     6    2
     6     5    10    1
     7    10    11   ar
     8    11    12   ar
     9    12    13    1
    10    12    14   ar
    11    14    15   ar
    12    15    16   ar
    13    16    17    1
    14    17    18   ar
    15    18    19   ar
    16    19    20   ar
    17    20    21   ar
    18     4     7    1
    19     7    22    1
    20    22    23    1
    21    23    24   ar
    22    24    25   ar
    23    25    30    1
    24    30    31   ar
    25    31    32   ar
    26    32    33   ar
    27    33    34   ar
    28    34    35   ar
    29    25    26   ar
    30    26    27   ar
    31    27    28   ar
    32    28    29    1
    33     7     8    1
    34     8     9    1
    35     9     2    1
    36    16    10   ar
    37    21    17   ar
    38    28    23   ar
    39    35    30   ar
@<TRIPOS>MOLECULE
*****
 35 39 0 0 0
SMALL
GASTEIGER

@<TRIPOS>ATOM
      1 C          59.7998   89.1258    7.9520 C.3     1  UNL1        0.0339
      2 C          60.4526   89.3297    9.2870 C.3     1  UNL1        0.1351
      3 C          61.2792   88.2345    9.8928 C.3     1  UNL1        0.1231
      4 N          61.9320   88.4384   11.2278 N.am    1  UNL1       -0.2724
      5 C          62.7587   87.3430   11.8335 C.2     1  UNL1        0.2507
      6 O          63.4116   87.5469   13.1686 O.2     1  UNL1       -0.2698
      7 C          61.7582   89.7376   11.9571 C.3     1  UNL1        0.1097
      8 C          60.9315   90.8328   11.3513 C.3     1  UNL1        0.1621
      9 O          60.2787   90.6289   10.0163 O.3     1  UNL1       -0.3527
     10 C          62.9326   86.0439   11.1043 C.ar    1  UNL1        0.0738
     11 C          62.8367   86.0051    9.6079 C.ar    1  UNL1        0.0175
     12 C          63.0106   84.7058    8.8786 C.ar    1  UNL1        0.0579
     13 CL         62.9146   84.6670    7.3822 Cl      1  UNL1       -0.0822
     14 C          63.2803   83.4454    9.6458 C.ar    1  UNL1        0.0130
     15 C          63.3762   83.4842   11.1422 C.ar    1  UNL1        0.0219
     16 C          63.2024   84.7834   11.8714 C.ar    1  UNL1        0.1073
     17 N          63.2983   84.8222   13.3679 N.ar    1  UNL1       -0.1477
     18 N          64.5575   84.9846   14.1668 N.ar    1  UNL1       -0.1447
     19 C          64.1893   84.9682   15.6208 C.ar    1  UNL1        0.1446
     20 C          62.7026   84.7955   15.7206 C.ar    1  UNL1        0.1446
     21 N          62.1520   84.7053   14.3282 N.ar    1  UNL1       -0.1447
     22 C          62.4110   89.9415   13.2921 C.3     1  UNL1        0.0510
     23 C          63.7587   90.5946   13.3760 C.ar    1  UNL1        0.0071
     24 C          64.2597   91.4299   12.2352 C.ar    1  UNL1        0.0011
     25 C          65.6074   92.0830   12.3191 C.ar    1  UNL1        0.0356
     26 C          66.4542   91.9008   13.5438 C.ar    1  UNL1        0.0053
     27 C          65.9533   91.0655   14.6845 C.ar    1  UNL1        0.0294
     28 C          64.6055   90.4124   14.6006 C.ar    1  UNL1        0.1362
     29 F          64.1046   89.5771   15.7414 F       1  UNL1       -0.2045
     30 C          66.1084   92.9183   11.1783 C.ar    1  UNL1        0.1622
     31 N          67.2386   92.4227   10.3256 N.ar    1  UNL1       -0.2250
     32 C          67.7396   93.2580    9.1849 C.ar    1  UNL1        0.1022
     33 C          67.1105   94.5888    8.8969 C.ar    1  UNL1        0.0414
     34 C          65.9803   95.0844    9.7496 C.ar    1  UNL1        0.1022
     35 N          65.4793   94.2491   10.8903 N.ar    1  UNL1       -0.2250
@<TRIPOS>BOND
     1     2     1    1
     2     2     3    1
     3     3     4    1
     4     4     5   am
     5     5     6    2
     6     5    10    1
     7    10    11   ar
     8    11    12   ar
     9    12    13    1
    10    12    14   ar
    11    14    15   ar
    12    15    16   ar
    13    16    17    1
    14    17    18   ar
    15    18    19   ar
    16    19    20   ar
    17    20    21   ar
    18     4     7    1
    19     7    22    1
    20    22    23    1
    21    23    24   ar
    22    24    25   ar
    23    25    30    1
    24    30    31   ar
    25    31    32   ar
    26    32    33   ar
    27    33    34   ar
    28    34    35   ar
    29    25    26   ar
    30    26    27   ar
    31    27    28   ar
    32    28    29    1
    33     7     8    1
    34     8     9    1
    35     9     2    1
    36    16    10   ar
    37    21    17   ar
    38    28    23   ar
    39    35    30   ar
@<TRIPOS>MOLECULE
*****
 35 39 0 0 0
SMALL
GASTEIGER

@<TRIPOS>ATOM
      1 C          64.4022   84.3262   13.8296 C.3     1  UNL1        0.0339
      2 C          64.2311   85.8163   13.8445 C.3     1  UNL1        0.1351
      3 C          63.4827   86.4964   12.7367 C.3     1  UNL1        0.1231
      4 N          63.3117   87.9866   12.7516 N.am    1  UNL1       -0.2724
      5 C          62.5632   88.6667   11.6437 C.2     1  UNL1        0.2507
      6 O          62.3922   90.1568   11.6586 O.2     1  UNL1       -0.2698
      7 C          63.8891   88.7966   13.8742 C.3     1  UNL1        0.1097
      8 C          64.6376   88.1165   14.9820 C.3     1  UNL1        0.1621
      9 O          64.8086   86.6263   14.9671 O.3     1  UNL1       -0.3527
     10 C          61.9857   87.8567   10.5211 C.ar    1  UNL1        0.0738
     11 C          62.8472   86.8738    9.7851 C.ar    1  UNL1        0.0175
     12 C          62.2697   86.0637    8.6624 C.ar    1  UNL1        0.0579
     13 CL         63.1312   85.0808    7.9264 Cl      1  UNL1       -0.0822
     14 C          60.8307   86.2366    8.2758 C.ar    1  UNL1        0.0130
     15 C          59.9692   87.2195    9.0118 C.ar    1  UNL1        0.0219
     16 C          60.5467   88.0295   10.1344 C.ar    1  UNL1        0.1073
     17 N          59.6852   89.0124   10.8705 N.ar    1  UNL1       -0.1477
     18 N          58.8586   88.7217   12.0880 N.ar    1  UNL1       -0.1447
     19 C          58.1616   89.9883   12.4882 C.ar    1  UNL1        0.1446
     20 C          58.5574   91.0617   11.5181 C.ar    1  UNL1        0.1446
     21 N          59.4991   90.4586   10.5183 N.ar    1  UNL1       -0.1447
     22 C          63.7181   90.2867   13.8891 C.3     1  UNL1        0.0510
     23 C          64.9225   91.1802   13.8576 C.ar    1  UNL1        0.0071
     24 C          65.4952   91.6212   12.5432 C.ar    1  UNL1        0.0011
     25 C          66.6996   92.5147   12.5117 C.ar    1  UNL1        0.0356
     26 C          67.3314   92.9673   13.7947 C.ar    1  UNL1        0.0053
     27 C          66.7588   92.5263   15.1091 C.ar    1  UNL1        0.0294
     28 C          65.5544   91.6328   15.1406 C.ar    1  UNL1        0.1362
     29 F          64.9818   91.1919   16.4550 F       1  UNL1       -0.2045
     30 C          67.2722   92.9557   11.1973 C.ar    1  UNL1        0.1622
     31 N          67.0090   94.3434   10.6923 N.ar    1  UNL1       -0.2250
     32 C          67.5816   94.7844    9.3779 C.ar    1  UNL1        0.1022
     33 C          68.4174   93.8376    8.5685 C.ar    1  UNL1        0.0414
     34 C          68.6806   92.4499    9.0735 C.ar    1  UNL1        0.1022
     35 N          68.1080   92.0089   10.3879 N.ar    1  UNL1       -0.2250
@<TRIPOS>BOND
     1     2     1    1
     2     2     3    1
     3     3     4    1
     4     4     5   am
     5     5     6    2
     6     5    10    1
     7    10    11   ar
     8    11    12   ar
     9    12    13    1
    10    12    14   ar
    11    14    15   ar
    12    15    16   ar
    13    16    17    1
    14    17    18   ar
    15    18    19   ar
    16    19    20   ar
    17    20    21   ar
    18     4     7    1
    19     7    22    1
    20    22    23    1
    21    23    24   ar
    22    24    25   ar
    23    25    30    1
    24    30    31   ar
    25    31    32   ar
    26    32    33   ar
    27    33    34   ar
    28    34    35   ar
    29    25    26   ar
    30    26    27   ar
    31    27    28   ar
    32    28    29    1
    33     7     8    1
    34     8     9    1
    35     9     2    1
    36    16    10   ar
    37    21    17   ar
    38    28    23   ar
    39    35    30   ar
@<TRIPOS>MOLECULE
*****
 35 39 0 0 0
SMALL
GASTEIGER

@<TRIPOS>ATOM
      1 C          62.9411   87.2669   18.0234 C.3     1  UNL1        0.0339
      2 C          63.1269   88.2501   16.9060 C.3     1  UNL1        0.1351
      3 C          63.1537   87.7733   15.4841 C.3     1  UNL1        0.1231
      4 N          63.3396   88.7566   14.3666 N.am    1  UNL1       -0.2724
      5 C          63.3663   88.2797   12.9447 C.2     1  UNL1        0.2507
      6 O          63.5522   89.2630   11.8273 O.2     1  UNL1       -0.2698
      7 C          63.4987   90.2167   14.6711 C.3     1  UNL1        0.1097
      8 C          63.4719   90.6935   16.0931 C.3     1  UNL1        0.1621
      9 O          63.2861   89.7102   17.2105 O.3     1  UNL1       -0.3527
     10 C          63.2072   86.8196   12.6402 C.ar    1  UNL1        0.0738
     11 C          64.0094   85.8037   13.3980 C.ar    1  UNL1        0.0175
     12 C          63.8503   84.3435   13.0934 C.ar    1  UNL1        0.0579
     13 CL         64.6525   83.3275   13.8512 Cl      1  UNL1       -0.0822
     14 C          62.8889   83.8994   12.0311 C.ar    1  UNL1        0.0130
     15 C          62.0867   84.9153   11.2733 C.ar    1  UNL1        0.0219
     16 C          62.2458   86.3754   11.5778 C.ar    1  UNL1        0.1073
     17 N          61.4436   87.3914   10.8200 N.ar    1  UNL1       -0.1477
     18 N          60.3268   88.2252   11.3748 N.ar    1  UNL1       -0.1447
     19 C          59.8104   89.1010   10.2720 C.ar    1  UNL1        0.1446
     20 C          60.6079   88.8086    9.0357 C.ar    1  UNL1        0.1446
     21 N          61.6172   87.7520    9.3744 N.ar    1  UNL1       -0.1447
     22 C          63.6846   91.2000   13.5537 C.3     1  UNL1        0.0510
     23 C          65.0538   91.7227   13.2347 C.ar    1  UNL1        0.0071
     24 C          65.2347   92.7340   12.1417 C.ar    1  UNL1        0.0011
     25 C          66.6040   93.2568   11.8227 C.ar    1  UNL1        0.0356
     26 C          67.7924   92.7682   12.5966 C.ar    1  UNL1        0.0053
     27 C          67.6116   91.7570   13.6895 C.ar    1  UNL1        0.0294
     28 C          66.2423   91.2342   14.0086 C.ar    1  UNL1        0.1362
     29 F          66.0615   90.2229   15.1016 F       1  UNL1       -0.2045
     30 C          66.7849   94.2681   10.7297 C.ar    1  UNL1        0.1622
     31 N          67.2692   93.8333    9.3782 N.ar    1  UNL1       -0.2250
     32 C          67.4500   94.8445    8.2852 C.ar    1  UNL1        0.1022
     33 C          67.1466   96.2906    8.5437 C.ar    1  UNL1        0.0414
     34 C          66.6623   96.7254    9.8952 C.ar    1  UNL1        0.1022
     35 N          66.4814   95.7141   10.9881 N.ar    1  UNL1       -0.2250
@<TRIPOS>BOND
     1     2     1    1
     2     2     3    1
     3     3     4    1
     4     4     5   am
     5     5     6    2
     6     5    10    1
     7    10    11   ar
     8    11    12   ar
     9    12    13    1
    10    12    14   ar
    11    14    15   ar
    12    15    16   ar
    13    16    17    1
    14    17    18   ar
    15    18    19   ar
    16    19    20   ar
    17    20    21   ar
    18     4     7    1
    19     7    22    1
    20    22    23    1
    21    23    24   ar
    22    24    25   ar
    23    25    30    1
    24    30    31   ar
    25    31    32   ar
    26    32    33   ar
    27    33    34   ar
    28    34    35   ar
    29    25    26   ar
    30    26    27   ar
    31    27    28   ar
    32    28    29    1
    33     7     8    1
    34     8     9    1
    35     9     2    1
    36    16    10   ar
    37    21    17   ar
    38    28    23   ar
    39    35    30   ar
@<TRIPOS>MOLECULE
*****
 35 39 0 0 0
SMALL
GASTEIGER

@<TRIPOS>ATOM
      1 C          62.7534   83.8393   13.7414 C.3     1  UNL1        0.0339
      2 C          63.1231   85.2805   13.5509 C.3     1  UNL1        0.1351
      3 C          62.6754   86.0135   12.3213 C.3     1  UNL1        0.1231
      4 N          63.0451   87.4547   12.1308 N.am    1  UNL1       -0.2724
      5 C          62.5973   88.1877   10.9010 C.2     1  UNL1        0.2507
      6 O          62.9670   89.6289   10.7106 O.2     1  UNL1       -0.2698
      7 C          63.8626   88.1629   13.1701 C.3     1  UNL1        0.1097
      8 C          64.3103   87.4299   14.3998 C.3     1  UNL1        0.1621
      9 O          63.9406   85.9887   14.5902 O.3     1  UNL1       -0.3527
     10 C          61.7799   87.4795    9.8618 C.ar    1  UNL1        0.0738
     11 C          62.4256   86.4708    8.9587 C.ar    1  UNL1        0.0175
     12 C          61.6081   85.7626    7.9193 C.ar    1  UNL1        0.0579
     13 CL         62.2539   84.7540    7.0162 Cl      1  UNL1       -0.0822
     14 C          60.1448   86.0630    7.7832 C.ar    1  UNL1        0.0130
     15 C          59.4991   87.0717    8.6863 C.ar    1  UNL1        0.0219
     16 C          60.3165   87.7799    9.7256 C.ar    1  UNL1        0.1073
     17 N          59.6707   88.7885   10.6287 N.ar    1  UNL1       -0.1477
     18 N          58.9987   88.4973   11.9378 N.ar    1  UNL1       -0.1447
     19 C          58.4962   89.7943   12.4994 C.ar    1  UNL1        0.1446
     20 C          58.8577   90.8870   11.5375 C.ar    1  UNL1        0.1446
     21 N          59.5836   90.2654   10.3813 N.ar    1  UNL1       -0.1447
     22 C          64.2323   89.6041   12.9797 C.3     1  UNL1        0.0510
     23 C          64.5894   90.4498   14.1659 C.ar    1  UNL1        0.0071
     24 C          65.9178   91.1445   14.2191 C.ar    1  UNL1        0.0011
     25 C          66.2750   91.9902   15.4053 C.ar    1  UNL1        0.0356
     26 C          65.3037   92.1413   16.5384 C.ar    1  UNL1        0.0053
     27 C          63.9754   91.4466   16.4853 C.ar    1  UNL1        0.0294
     28 C          63.6182   90.6008   15.2990 C.ar    1  UNL1        0.1362
     29 F          62.2899   89.9062   15.2459 F       1  UNL1       -0.2045
     30 C          67.6034   92.6850   15.4585 C.ar    1  UNL1        0.1622
     31 N          68.7334   92.2098   14.5940 N.ar    1  UNL1       -0.2250
     32 C          70.0617   92.9044   14.6471 C.ar    1  UNL1        0.1022
     33 C          70.2601   94.0743   15.5647 C.ar    1  UNL1        0.0414
     34 C          69.1301   94.5495   16.4292 C.ar    1  UNL1        0.1022
     35 N          67.8018   93.8548   16.3761 N.ar    1  UNL1       -0.2250
@<TRIPOS>BOND
     1     2     1    1
     2     2     3    1
     3     3     4    1
     4     4     5   am
     5     5     6    2
     6     5    10    1
     7    10    11   ar
     8    11    12   ar
     9    12    13    1
    10    12    14   ar
    11    14    15   ar
    12    15    16   ar
    13    16    17    1
    14    17    18   ar
    15    18    19   ar
    16    19    20   ar
    17    20    21   ar
    18     4     7    1
    19     7    22    1
    20    22    23    1
    21    23    24   ar
    22    24    25   ar
    23    25    30    1
    24    30    31   ar
    25    31    32   ar
    26    32    33   ar
    27    33    34   ar
    28    34    35   ar
    29    25    26   ar
    30    26    27   ar
    31    27    28   ar
    32    28    29    1
    33     7     8    1
    34     8     9    1
    35     9     2    1
    36    16    10   ar
    37    21    17   ar
    38    28    23   ar
    39    35    30   ar
