@<TRIPOS>MOLECULE
*****
 31 34 0 0 0
SMALL
GASTEIGER

@<TRIPOS>ATOM
      1 N          63.5525   85.0442   12.8360 N.3     1  UNL1       -0.1521
      2 C          64.3420   85.3510   14.0739 C.3     1  UNL1        0.1173
      3 C          64.5504   86.7750   14.4969 C.3     1  UNL1        0.1126
      4 N          63.9692   87.8921   13.6819 N.pl3   1  UNL1       -0.2782
      5 C          63.1797   87.5853   12.4440 C.3     1  UNL1        0.0933
      6 C          62.5985   88.7025   11.6290 C.3     1  UNL1        0.0230
      7 C          62.9714   86.1613   12.0211 C.3     1  UNL1        0.1156
      8 C          64.1776   89.3161   14.1049 C.ar    1  UNL1        0.2035
      9 N          64.7899   90.2995   13.1521 N.ar    1  UNL1       -0.2133
     10 C          64.9983   91.7235   13.5751 C.ar    1  UNL1        0.1065
     11 C          64.5943   92.1640   14.9508 C.ar    1  UNL1        0.0815
     12 C          63.9820   91.1806   15.9036 C.ar    1  UNL1        0.2646
     13 O          63.5780   91.6211   17.2794 O.2     1  UNL1       -0.2668
     14 N          63.7736   89.7566   15.4806 N.ar    1  UNL1       -0.2667
     15 C          63.1613   88.7731   16.4335 C.3     1  UNL1        0.1363
     16 C          65.6106   92.7070   12.6222 C.ar    1  UNL1        0.1024
     17 C          65.9323   92.2899   11.2178 C.ar    1  UNL1        0.0414
     18 C          66.5447   93.2734   10.2649 C.ar    1  UNL1        0.1023
     19 N          66.8353   94.6739   10.7166 N.ar    1  UNL1       -0.2224
     20 C          66.5137   95.0910   12.1211 C.ar    1  UNL1        0.1989
     21 N          65.9013   94.1075   13.0739 N.ar    1  UNL1       -0.2224
     22 S          63.3442   83.6202   12.4131 S.O2    1  UNL1        0.0634
     23 O          62.4359   84.0803   11.3115 O.2     1  UNL1       -0.1528
     24 O          64.2524   83.1601   13.5146 O.2     1  UNL1       -0.1528
     25 C          62.5107   77.9243   10.7212 C.3     1  UNL1        0.0310
     26 C          62.7191   79.3483   11.1442 C.ar    1  UNL1       -0.0218
     27 C          63.1285   80.3785   10.1338 C.ar    1  UNL1       -0.0029
     28 C          63.3369   81.8025   10.5568 C.ar    1  UNL1        0.0196
     29 C          63.1358   82.1962   11.9901 C.ar    1  UNL1        0.1222
     30 C          62.7263   81.1660   13.0005 C.ar    1  UNL1        0.0196
     31 C          62.5180   79.7420   12.5775 C.ar    1  UNL1       -0.0029
@<TRIPOS>BOND
     1    25    26    1
     2    26    27   ar
     3    27    28   ar
     4    28    29   ar
     5    29    22    1
     6    22    23    2
     7    22    24    2
     8    22     1    1
     9     1     2    1
    10     2     3    1
    11     3     4    1
    12     4     8    1
    13     8     9   ar
    14     9    10   ar
    15    10    16    1
    16    16    17   ar
    17    17    18   ar
    18    18    19   ar
    19    19    20   ar
    20    20    21   ar
    21    10    11   ar
    22    11    12   ar
    23    12    13    2
    24    12    14   ar
    25    14    15    1
    26     4     5    1
    27     5     6    1
    28     5     7    1
    29    29    30   ar
    30    30    31   ar
    31    31    26   ar
    32     7     1    1
    33    14     8   ar
    34    21    16   ar
@<TRIPOS>MOLECULE
*****
 31 34 0 0 0
SMALL
GASTEIGER

@<TRIPOS>ATOM
      1 N          65.3504   91.3130   12.4463 N.3     1  UNL1       -0.1521
      2 C          66.0272   91.0158   13.7515 C.3     1  UNL1        0.1173
      3 C          65.5150   89.9111   14.6274 C.3     1  UNL1        0.1126
      4 N          64.3260   89.1036   14.1982 N.pl3   1  UNL1       -0.2782
      5 C          63.6493   89.4008   12.8930 C.3     1  UNL1        0.0933
      6 C          62.4603   88.5933   12.4637 C.3     1  UNL1        0.0230
      7 C          64.1614   90.5055   12.0170 C.3     1  UNL1        0.1156
      8 C          63.8139   87.9989   15.0741 C.ar    1  UNL1        0.2035
      9 N          63.7828   86.5892   14.5625 N.ar    1  UNL1       -0.2133
     10 C          63.2706   85.4845   15.4384 C.ar    1  UNL1        0.1065
     11 C          62.7895   85.7895   16.8261 C.ar    1  UNL1        0.0815
     12 C          62.8207   87.1991   17.3377 C.ar    1  UNL1        0.2646
     13 O          62.3396   87.5042   18.7254 O.2     1  UNL1       -0.2668
     14 N          63.3328   88.3038   16.4618 N.ar    1  UNL1       -0.2667
     15 C          63.3639   89.7136   16.9735 C.3     1  UNL1        0.1363
     16 C          63.2395   84.0748   14.9267 C.ar    1  UNL1        0.1024
     17 C          64.3383   83.5759   14.0358 C.ar    1  UNL1        0.0414
     18 C          64.3072   82.1662   13.5241 C.ar    1  UNL1        0.1023
     19 N          63.1772   81.2554   13.9033 N.ar    1  UNL1       -0.2224
     20 C          62.0784   81.7544   14.7942 C.ar    1  UNL1        0.1989
     21 N          62.1096   83.1640   15.3059 N.ar    1  UNL1       -0.2224
     22 S          65.8625   92.4177   11.5703 S.O2    1  UNL1        0.0634
     23 O          67.2712   91.9782   11.8396 O.2     1  UNL1       -0.1528
     24 O          64.4539   92.8573   11.3010 O.2     1  UNL1       -0.1528
     25 C          67.9112   96.8365    8.0665 C.3     1  UNL1        0.0310
     26 C          67.3990   95.7318    8.9424 C.ar    1  UNL1       -0.0218
     27 C          66.2303   95.9754    9.8505 C.ar    1  UNL1       -0.0029
     28 C          65.7181   94.8707   10.7265 C.ar    1  UNL1        0.0196
     29 C          66.3747   93.5224   10.6943 C.ar    1  UNL1        0.1222
     30 C          67.5434   93.2789    9.7862 C.ar    1  UNL1        0.0196
     31 C          68.0556   94.3836    8.9103 C.ar    1  UNL1       -0.0029
@<TRIPOS>BOND
     1    25    26    1
     2    26    27   ar
     3    27    28   ar
     4    28    29   ar
     5    29    22    1
     6    22    23    2
     7    22    24    2
     8    22     1    1
     9     1     2    1
    10     2     3    1
    11     3     4    1
    12     4     8    1
    13     8     9   ar
    14     9    10   ar
    15    10    16    1
    16    16    17   ar
    17    17    18   ar
    18    18    19   ar
    19    19    20   ar
    20    20    21   ar
    21    10    11   ar
    22    11    12   ar
    23    12    13    2
    24    12    14   ar
    25    14    15    1
    26     4     5    1
    27     5     6    1
    28     5     7    1
    29    29    30   ar
    30    30    31   ar
    31    31    26   ar
    32     7     1    1
    33    14     8   ar
    34    21    16   ar
@<TRIPOS>MOLECULE
*****
 31 34 0 0 0
SMALL
GASTEIGER

@<TRIPOS>ATOM
      1 N          63.7833   85.2396   13.2622 N.3     1  UNL1       -0.1521
      2 C          64.4733   85.4025   14.5840 C.3     1  UNL1        0.1173
      3 C          64.7216   86.7748   15.1363 C.3     1  UNL1        0.1126
      4 N          64.2800   87.9842   14.3667 N.pl3   1  UNL1       -0.2782
      5 C          63.5900   87.8213   13.0449 C.3     1  UNL1        0.0933
      6 C          63.1484   89.0307   12.2752 C.3     1  UNL1        0.0230
      7 C          63.3416   86.4489   12.4926 C.3     1  UNL1        0.1156
      8 C          64.5284   89.3566   14.9190 C.ar    1  UNL1        0.2035
      9 N          65.8624   90.0138   14.7228 N.ar    1  UNL1       -0.2133
     10 C          66.1108   91.3862   15.2751 C.ar    1  UNL1        0.1065
     11 C          65.0252   92.1012   16.0235 C.ar    1  UNL1        0.0815
     12 C          63.6912   91.4440   16.2196 C.ar    1  UNL1        0.2646
     13 O          62.6056   92.1591   16.9681 O.2     1  UNL1       -0.2668
     14 N          63.4428   90.0717   15.6674 N.ar    1  UNL1       -0.2667
     15 C          62.1088   89.4144   15.8635 C.3     1  UNL1        0.1363
     16 C          67.4448   92.0434   15.0789 C.ar    1  UNL1        0.1024
     17 C          67.9062   93.1039   16.0342 C.ar    1  UNL1        0.0414
     18 C          69.2402   93.7611   15.8380 C.ar    1  UNL1        0.1023
     19 N          70.1129   93.3579   14.6865 N.ar    1  UNL1       -0.2224
     20 C          69.6514   92.2973   13.7313 C.ar    1  UNL1        0.1989
     21 N          68.3175   91.6402   13.9275 N.ar    1  UNL1       -0.2224
     22 S          63.5349   83.8672   12.7099 S.O2    1  UNL1        0.0634
     23 O          62.8768   84.4712   11.5049 O.2     1  UNL1       -0.1528
     24 O          64.1929   83.2632   13.9150 O.2     1  UNL1       -0.1528
     25 C          62.5413   78.3779   10.5009 C.3     1  UNL1        0.0310
     26 C          62.7897   79.7502   11.0532 C.ar    1  UNL1       -0.0218
     27 C          62.5437   80.0298   12.5062 C.ar    1  UNL1       -0.0029
     28 C          62.7921   81.4021   13.0584 C.ar    1  UNL1        0.0196
     29 C          63.2865   82.4949   12.1577 C.ar    1  UNL1        0.1222
     30 C          63.5324   82.2153   10.7047 C.ar    1  UNL1        0.0196
     31 C          63.2841   80.8430   10.1524 C.ar    1  UNL1       -0.0029
@<TRIPOS>BOND
     1    25    26    1
     2    26    27   ar
     3    27    28   ar
     4    28    29   ar
     5    29    22    1
     6    22    23    2
     7    22    24    2
     8    22     1    1
     9     1     2    1
    10     2     3    1
    11     3     4    1
    12     4     8    1
    13     8     9   ar
    14     9    10   ar
    15    10    16    1
    16    16    17   ar
    17    17    18   ar
    18    18    19   ar
    19    19    20   ar
    20    20    21   ar
    21    10    11   ar
    22    11    12   ar
    23    12    13    2
    24    12    14   ar
    25    14    15    1
    26     4     5    1
    27     5     6    1
    28     5     7    1
    29    29    30   ar
    30    30    31   ar
    31    31    26   ar
    32     7     1    1
    33    14     8   ar
    34    21    16   ar
@<TRIPOS>MOLECULE
*****
 31 34 0 0 0
SMALL
GASTEIGER

@<TRIPOS>ATOM
      1 N          63.4447   84.5447   12.6484 N.3     1  UNL1       -0.1521
      2 C          62.6793   85.6420   11.9702 C.3     1  UNL1        0.1173
      3 C          62.8525   87.0637   12.4160 C.3     1  UNL1        0.1126
      4 N          63.7912   87.3881   13.5401 N.pl3   1  UNL1       -0.2782
      5 C          64.5567   86.2908   14.2183 C.3     1  UNL1        0.0933
      6 C          65.4954   86.6151   15.3424 C.3     1  UNL1        0.0230
      7 C          64.3834   84.8691   13.7725 C.3     1  UNL1        0.1156
      8 C          63.9645   88.8098   13.9859 C.ar    1  UNL1        0.2035
      9 N          64.5142   89.8320   13.0358 N.ar    1  UNL1       -0.2133
     10 C          64.6875   91.2537   13.4817 C.ar    1  UNL1        0.1065
     11 C          64.3111   91.6531   14.8776 C.ar    1  UNL1        0.0815
     12 C          63.7614   90.6309   15.8277 C.ar    1  UNL1        0.2646
     13 O          63.3849   91.0303   17.2238 O.2     1  UNL1       -0.2668
     14 N          63.5881   89.2092   15.3819 N.ar    1  UNL1       -0.2667
     15 C          63.0384   88.1869   16.3321 C.3     1  UNL1        0.1363
     16 C          65.2373   92.2760   12.5315 C.ar    1  UNL1        0.1024
     17 C          65.9828   93.4659   13.0590 C.ar    1  UNL1        0.0414
     18 C          66.5326   94.4882   12.1088 C.ar    1  UNL1        0.1023
     19 N          66.3367   94.3205   10.6311 N.ar    1  UNL1       -0.2224
     20 C          65.5911   93.1306   10.1037 C.ar    1  UNL1        0.1989
     21 N          65.0414   92.1084   11.0538 N.ar    1  UNL1       -0.2224
     22 S          63.2714   83.1230   12.2025 S.O2    1  UNL1        0.0634
     23 O          64.1871   83.3755   11.0416 O.2     1  UNL1       -0.1528
     24 O          62.3557   82.8706   13.3635 O.2     1  UNL1       -0.1528
     25 C          62.5783   77.4363   10.4191 C.3     1  UNL1        0.0310
     26 C          62.7515   78.8580   10.8650 C.ar    1  UNL1       -0.0218
     27 C          62.5769   79.2172   12.3108 C.ar    1  UNL1       -0.0029
     28 C          62.7502   80.6388   12.7567 C.ar    1  UNL1        0.0196
     29 C          63.0981   81.7013   11.7567 C.ar    1  UNL1        0.1222
     30 C          63.2727   81.3422   10.3109 C.ar    1  UNL1        0.0196
     31 C          63.0995   79.9205    9.8650 C.ar    1  UNL1       -0.0029
@<TRIPOS>BOND
     1    25    26    1
     2    26    27   ar
     3    27    28   ar
     4    28    29   ar
     5    29    22    1
     6    22    23    2
     7    22    24    2
     8    22     1    1
     9     1     2    1
    10     2     3    1
    11     3     4    1
    12     4     8    1
    13     8     9   ar
    14     9    10   ar
    15    10    16    1
    16    16    17   ar
    17    17    18   ar
    18    18    19   ar
    19    19    20   ar
    20    20    21   ar
    21    10    11   ar
    22    11    12   ar
    23    12    13    2
    24    12    14   ar
    25    14    15    1
    26     4     5    1
    27     5     6    1
    28     5     7    1
    29    29    30   ar
    30    30    31   ar
    31    31    26   ar
    32     7     1    1
    33    14     8   ar
    34    21    16   ar
