@<TRIPOS>MOLECULE
*****
 28 30 0 0 0
SMALL
GASTEIGER

@<TRIPOS>ATOM
      1 C          65.8050   91.5431   14.5604 C.ar    1  UNL1        0.0494
      2 C          65.2853   90.2605   15.1392 C.ar    1  UNL1        0.0042
      3 C          64.3382   89.4094   14.3464 C.ar    1  UNL1        0.0001
      4 C          63.9107   89.8408   12.9748 C.ar    1  UNL1       -0.0005
      5 C          62.9636   88.9897   12.1821 C.ar    1  UNL1       -0.0017
      6 C          62.5361   89.4211   10.8106 C.ar    1  UNL1        0.0070
      7 C          63.0557   90.7037   10.2318 C.ar    1  UNL1       -0.0017
      8 C          64.0029   91.5549   11.0246 C.ar    1  UNL1       -0.0005
      9 C          64.4303   91.1234   12.3961 C.ar    1  UNL1       -0.0038
     10 C          65.3775   91.9745   13.1889 C.ar    1  UNL1       -0.0175
     11 C          65.8971   93.2571   12.6102 C.3     1  UNL1        0.0312
     12 C          69.1057   93.4489   15.6662 C.3     1  UNL1        0.1109
     13 N          68.1586   92.5978   14.8734 N.am    1  UNL1       -0.2992
     14 C          66.7521   92.3942   15.3533 C.2     1  UNL1        0.2456
     15 O          66.2927   93.0418   16.6259 O.2     1  UNL1       -0.2702
     16 H          68.4601   92.1729   14.0381 H       1  UNL1        0.1498
     17 C          61.5889   88.5700   10.0178 C.3     1  UNL1        0.1410
     18 O          62.7318   88.0791    9.1795 O.3     1  UNL1       -0.3771
     19 H          63.5556   88.4922    9.4822 H       1  UNL1        0.2112
     20 C          60.4460   89.0609   10.8560 C.ar    1  UNL1        0.0825
     21 C          59.8932   90.4554   10.8634 C.ar    1  UNL1        0.1157
     22 N          58.7608   90.4999   11.8460 N.ar    1  UNL1       -0.2228
     23 C          58.6137   89.1330   12.4460 C.ar    1  UNL1        0.1749
     24 N          59.6552   88.2436   11.8341 N.ar    1  UNL1       -0.3361
     25 H          59.7952   87.2908   12.0386 H       1  UNL1        0.1673
     26 C          60.6419   87.7189    9.2249 C.3     1  UNL1        0.0340
     27 C          60.6668   86.2268    9.3779 C.3     1  UNL1        0.0031
     28 C          59.6699   88.3597    8.2791 C.3     1  UNL1        0.0031
@<TRIPOS>BOND
     1    12    13    1
     2    13    14   am
     3    14    15    2
     4    14     1    1
     5     1     2   ar
     6     2     3   ar
     7     3     4   ar
     8     4     5   ar
     9     5     6   ar
    10     6    17    1
    11    17    18    1
    12    17    20    1
    13    20    21   ar
    14    21    22   ar
    15    22    23   ar
    16    23    24   ar
    17    17    26    1
    18    26    27    1
    19    26    28    1
    20     6     7   ar
    21     7     8   ar
    22     8     9   ar
    23     9    10   ar
    24    10    11    1
    25    10     1   ar
    26     9     4   ar
    27    24    20   ar
    28    13    16    1
    29    18    19    1
    30    24    25    1
@<TRIPOS>MOLECULE
*****
 28 30 0 0 0
SMALL
GASTEIGER

@<TRIPOS>ATOM
      1 C          65.3676   91.0871   14.1978 C.ar    1  UNL1        0.0494
      2 C          64.7360   89.8160   14.6830 C.ar    1  UNL1        0.0042
      3 C          63.7206   89.1111   13.8333 C.ar    1  UNL1        0.0001
      4 C          63.3367   89.6773   12.4984 C.ar    1  UNL1       -0.0005
      5 C          62.3212   88.9724   11.6487 C.ar    1  UNL1       -0.0017
      6 C          61.9374   89.5386   10.3138 C.ar    1  UNL1        0.0070
      7 C          62.5689   90.8097    9.8286 C.ar    1  UNL1       -0.0017
      8 C          63.5843   91.5146   10.6782 C.ar    1  UNL1       -0.0005
      9 C          63.9682   90.9484   12.0131 C.ar    1  UNL1       -0.0038
     10 C          64.9837   91.6533   12.8629 C.ar    1  UNL1       -0.0175
     11 C          65.6152   92.9244   12.3776 C.3     1  UNL1        0.0312
     12 C          68.8616   92.3242   15.6159 C.3     1  UNL1        0.1109
     13 N          67.8462   91.6193   14.7661 N.am    1  UNL1       -0.2992
     14 C          66.3831   91.7920   15.0475 C.2     1  UNL1        0.2456
     15 O          65.9353   92.6695   16.1786 O.2     1  UNL1       -0.2702
     16 H          68.1401   91.0433   14.0238 H       1  UNL1        0.1498
     17 C          60.9219   88.8337    9.4640 C.3     1  UNL1        0.1410
     18 O          60.3617   90.1575    9.0355 O.3     1  UNL1       -0.3771
     19 H          60.8600   90.8725    9.4612 H       1  UNL1        0.2112
     20 C          61.4821   87.5099    9.8926 C.ar    1  UNL1        0.0825
     21 C          62.4462   86.6662    9.1123 C.ar    1  UNL1        0.1157
     22 N          62.7366   85.4322    9.9142 N.ar    1  UNL1       -0.2228
     23 C          61.9519   85.5132   11.1900 C.ar    1  UNL1        0.1749
     24 N          61.1766   86.7973   11.1767 N.ar    1  UNL1       -0.3361
     25 H          60.5732   87.1163   11.8862 H       1  UNL1        0.1673
     26 C          59.9064   88.1289    8.6143 C.3     1  UNL1        0.0340
     27 C          59.3118   86.8317    9.0769 C.3     1  UNL1        0.0031
     28 C          59.4855   88.7211    7.3021 C.3     1  UNL1        0.0031
@<TRIPOS>BOND
     1    12    13    1
     2    13    14   am
     3    14    15    2
     4    14     1    1
     5     1     2   ar
     6     2     3   ar
     7     3     4   ar
     8     4     5   ar
     9     5     6   ar
    10     6    17    1
    11    17    18    1
    12    17    20    1
    13    20    21   ar
    14    21    22   ar
    15    22    23   ar
    16    23    24   ar
    17    17    26    1
    18    26    27    1
    19    26    28    1
    20     6     7   ar
    21     7     8   ar
    22     8     9   ar
    23     9    10   ar
    24    10    11    1
    25    10     1   ar
    26     9     4   ar
    27    24    20   ar
    28    13    16    1
    29    18    19    1
    30    24    25    1
@<TRIPOS>MOLECULE
*****
 28 30 0 0 0
SMALL
GASTEIGER

@<TRIPOS>ATOM
      1 C          63.6203   89.4835   12.4885 C.ar    1  UNL1        0.0494
      2 C          62.8141   88.8448   11.3967 C.ar    1  UNL1        0.0042
      3 C          62.4777   87.3848   11.4688 C.ar    1  UNL1        0.0001
      4 C          62.9474   86.5635   12.6329 C.ar    1  UNL1       -0.0005
      5 C          62.6110   85.1035   12.7050 C.ar    1  UNL1       -0.0017
      6 C          63.0807   84.2823   13.8690 C.ar    1  UNL1        0.0070
      7 C          63.8869   84.9211   14.9608 C.ar    1  UNL1       -0.0017
      8 C          64.2233   86.3810   14.8887 C.ar    1  UNL1       -0.0005
      9 C          63.7536   87.2022   13.7247 C.ar    1  UNL1       -0.0038
     10 C          64.0901   88.6623   13.6525 C.ar    1  UNL1       -0.0175
     11 C          64.8962   89.3010   14.7443 C.3     1  UNL1        0.0312
     12 C          64.8724   92.9784   11.0856 C.3     1  UNL1        0.1109
     13 N          64.5359   91.5184   11.1577 N.am    1  UNL1       -0.2992
     14 C          63.9568   90.9436   12.4163 C.2     1  UNL1        0.2456
     15 O          63.7140   91.8287   13.6027 O.2     1  UNL1       -0.2702
     16 H          64.6953   90.9375   10.3790 H       1  UNL1        0.1498
     17 C          62.7443   82.8223   13.9412 C.3     1  UNL1        0.1410
     18 O          62.1593   83.0247   15.3075 O.3     1  UNL1       -0.3771
     19 H          62.2384   83.9584   15.5580 H       1  UNL1        0.2112
     20 C          63.3292   82.6199   12.5749 C.ar    1  UNL1        0.0825
     21 C          64.7171   82.9937   12.1457 C.ar    1  UNL1        0.1157
     22 N          64.8746   82.6130   10.7034 N.ar    1  UNL1       -0.2228
     23 C          63.5842   82.0039   10.2412 C.ar    1  UNL1        0.1749
     24 N          62.6290   82.0081   11.3978 N.ar    1  UNL1       -0.3361
     25 H          61.7048   81.6689   11.3863 H       1  UNL1        0.1673
     26 C          62.4078   81.3623   14.0134 C.3     1  UNL1        0.0340
     27 C          60.9750   80.9260   14.0967 C.3     1  UNL1        0.0031
     28 C          63.5041   80.3386   14.0024 C.3     1  UNL1        0.0031
@<TRIPOS>BOND
     1    12    13    1
     2    13    14   am
     3    14    15    2
     4    14     1    1
     5     1     2   ar
     6     2     3   ar
     7     3     4   ar
     8     4     5   ar
     9     5     6   ar
    10     6    17    1
    11    17    18    1
    12    17    20    1
    13    20    21   ar
    14    21    22   ar
    15    22    23   ar
    16    23    24   ar
    17    17    26    1
    18    26    27    1
    19    26    28    1
    20     6     7   ar
    21     7     8   ar
    22     8     9   ar
    23     9    10   ar
    24    10    11    1
    25    10     1   ar
    26     9     4   ar
    27    24    20   ar
    28    13    16    1
    29    18    19    1
    30    24    25    1
@<TRIPOS>MOLECULE
*****
 28 30 0 0 0
SMALL
GASTEIGER

@<TRIPOS>ATOM
      1 C          61.4861   88.4034    9.9538 C.ar    1  UNL1        0.0494
      2 C          61.6091   89.8131    9.4563 C.ar    1  UNL1        0.0042
      3 C          62.4493   90.8030   10.2074 C.ar    1  UNL1        0.0001
      4 C          63.1666   90.3831   11.4561 C.ar    1  UNL1       -0.0005
      5 C          64.0068   91.3730   12.2072 C.ar    1  UNL1       -0.0017
      6 C          64.7241   90.9531   13.4559 C.ar    1  UNL1        0.0070
      7 C          64.6011   89.5434   13.9534 C.ar    1  UNL1       -0.0017
      8 C          63.7609   88.5535   13.2023 C.ar    1  UNL1       -0.0005
      9 C          63.0437   88.9734   11.9537 C.ar    1  UNL1       -0.0038
     10 C          62.2034   87.9835   11.2025 C.ar    1  UNL1       -0.0175
     11 C          62.0805   86.5738   11.7001 C.3     1  UNL1        0.0312
     12 C          60.4484   85.4786    7.4803 C.3     1  UNL1        0.1109
     13 N          61.2887   86.4684    8.2314 N.am    1  UNL1       -0.2992
     14 C          60.6459   87.4135    9.2027 C.2     1  UNL1        0.2456
     15 O          59.1628   87.3688    9.4229 O.2     1  UNL1       -0.2702
     16 H          62.2621   86.4977    8.0869 H       1  UNL1        0.1498
     17 C          65.5643   91.9430   14.2070 C.3     1  UNL1        0.1410
     18 O          64.6861   91.7746   15.4113 O.3     1  UNL1       -0.3771
     19 H          63.9845   91.1348   15.2129 H       1  UNL1        0.2112
     20 C          66.4426   92.1114   13.0028 C.ar    1  UNL1        0.0825
     21 C          67.8627   91.6455   12.8751 C.ar    1  UNL1        0.1157
     22 N          68.3528   92.0214   11.5082 N.ar    1  UNL1       -0.2228
     23 C          67.2356   92.7197   10.7911 C.ar    1  UNL1        0.1749
     24 N          66.0550   92.7753   11.7148 N.ar    1  UNL1       -0.3361
     25 H          65.1795   93.1771   11.5113 H       1  UNL1        0.1673
     26 C          66.4045   92.9328   14.9582 C.3     1  UNL1        0.0340
     27 C          66.8758   92.6158   16.3466 C.3     1  UNL1        0.0031
     28 C          66.7734   94.2397   14.3211 C.3     1  UNL1        0.0031
@<TRIPOS>BOND
     1    12    13    1
     2    13    14   am
     3    14    15    2
     4    14     1    1
     5     1     2   ar
     6     2     3   ar
     7     3     4   ar
     8     4     5   ar
     9     5     6   ar
    10     6    17    1
    11    17    18    1
    12    17    20    1
    13    20    21   ar
    14    21    22   ar
    15    22    23   ar
    16    23    24   ar
    17    17    26    1
    18    26    27    1
    19    26    28    1
    20     6     7   ar
    21     7     8   ar
    22     8     9   ar
    23     9    10   ar
    24    10    11    1
    25    10     1   ar
    26     9     4   ar
    27    24    20   ar
    28    13    16    1
    29    18    19    1
    30    24    25    1
@<TRIPOS>MOLECULE
*****
 28 30 0 0 0
SMALL
GASTEIGER

@<TRIPOS>ATOM
      1 C          60.2244   88.6315    8.6010 C.ar    1  UNL1        0.0494
      2 C          60.6848   89.7063    9.5406 C.ar    1  UNL1        0.0042
      3 C          61.5085   89.3496   10.7423 C.ar    1  UNL1        0.0001
      4 C          61.8718   87.9180   11.0046 C.ar    1  UNL1       -0.0005
      5 C          62.6954   87.5613   12.2063 C.ar    1  UNL1       -0.0017
      6 C          63.0587   86.1298   12.4685 C.ar    1  UNL1        0.0070
      7 C          62.5982   85.0550   11.5289 C.ar    1  UNL1       -0.0017
      8 C          61.7746   85.4117   10.3272 C.ar    1  UNL1       -0.0005
      9 C          61.4113   86.8432   10.0650 C.ar    1  UNL1       -0.0038
     10 C          60.5876   87.2000    8.8632 C.ar    1  UNL1       -0.0175
     11 C          60.1272   86.1252    7.9236 C.3     1  UNL1        0.0312
     12 C          58.9904   90.4868    5.3170 C.3     1  UNL1        0.1109
     13 N          59.8141   90.1301    6.5187 N.am    1  UNL1       -0.2992
     14 C          59.4007   88.9883    7.3992 C.2     1  UNL1        0.2456
     15 O          58.1636   88.2032    7.0779 O.2     1  UNL1       -0.2702
     16 H          60.6260   90.6454    6.7295 H       1  UNL1        0.1498
     17 C          63.8824   85.7730   13.6703 C.3     1  UNL1        0.1410
     18 O          64.0288   87.2285   14.0020 O.3     1  UNL1       -0.3771
     19 H          63.5582   87.7597   13.3408 H       1  UNL1        0.2112
     20 C          63.7359   84.3175   13.3387 C.ar    1  UNL1        0.0825
     21 C          62.6390   83.4111   13.8133 C.ar    1  UNL1        0.1157
     22 N          62.8858   82.0462   13.2421 N.ar    1  UNL1       -0.2228
     23 C          64.1352   82.1091   12.4146 C.ar    1  UNL1        0.1749
     24 N          64.6607   83.5128   12.4742 N.ar    1  UNL1       -0.3361
     25 H          65.4703   83.8472   12.0249 H       1  UNL1        0.1673
     26 C          64.7060   85.4163   14.8721 C.3     1  UNL1        0.0340
     27 C          64.0725   85.3785   16.2313 C.3     1  UNL1        0.0031
     28 C          66.1633   85.0974   14.7148 C.3     1  UNL1        0.0031
@<TRIPOS>BOND
     1    12    13    1
     2    13    14   am
     3    14    15    2
     4    14     1    1
     5     1     2   ar
     6     2     3   ar
     7     3     4   ar
     8     4     5   ar
     9     5     6   ar
    10     6    17    1
    11    17    18    1
    12    17    20    1
    13    20    21   ar
    14    21    22   ar
    15    22    23   ar
    16    23    24   ar
    17    17    26    1
    18    26    27    1
    19    26    28    1
    20     6     7   ar
    21     7     8   ar
    22     8     9   ar
    23     9    10   ar
    24    10    11    1
    25    10     1   ar
    26     9     4   ar
    27    24    20   ar
    28    13    16    1
    29    18    19    1
    30    24    25    1
@<TRIPOS>MOLECULE
*****
 28 30 0 0 0
SMALL
GASTEIGER

@<TRIPOS>ATOM
      1 C          61.5430   87.3619   10.1940 C.ar    1  UNL1        0.0494
      2 C          62.1584   86.5209   11.2729 C.ar    1  UNL1        0.0042
      3 C          63.0217   87.1588   12.3206 C.ar    1  UNL1        0.0001
      4 C          63.2696   88.6379   12.2895 C.ar    1  UNL1       -0.0005
      5 C          64.1329   89.2759   13.3372 C.ar    1  UNL1       -0.0017
      6 C          64.3808   90.7549   13.3060 C.ar    1  UNL1        0.0070
      7 C          63.7654   91.5960   12.2271 C.ar    1  UNL1       -0.0017
      8 C          62.9021   90.9580   11.1794 C.ar    1  UNL1       -0.0005
      9 C          62.6542   89.4790   11.2106 C.ar    1  UNL1       -0.0038
     10 C          61.7909   88.8409   10.1629 C.ar    1  UNL1       -0.0175
     11 C          61.1756   89.6820    9.0840 C.3     1  UNL1        0.0312
     12 C          60.4374   85.2320    7.0332 C.3     1  UNL1        0.1109
     13 N          61.3007   85.8700    8.0809 N.am    1  UNL1       -0.2992
     14 C          60.6797   86.7239    9.1463 C.2     1  UNL1        0.2456
     15 O          59.1955   86.9398    9.1641 O.2     1  UNL1       -0.2702
     16 H          62.2749   85.7283    8.0692 H       1  UNL1        0.1498
     17 C          65.2441   91.3930   14.3537 C.3     1  UNL1        0.1410
     18 O          64.5864   90.5522   15.4076 O.3     1  UNL1       -0.3771
     19 H          63.9183   89.9821   14.9959 H       1  UNL1        0.2112
     20 C          65.9018   92.2337   13.2999 C.ar    1  UNL1        0.0825
     21 C          66.8753   91.7497   12.2663 C.ar    1  UNL1        0.1157
     22 N          67.2767   92.9228   11.4222 N.ar    1  UNL1       -0.2228
     23 C          66.5513   94.1319   11.9340 C.ar    1  UNL1        0.1749
     24 N          65.7015   93.7060   13.0945 N.ar    1  UNL1       -0.3361
     25 H          65.1153   94.2902   13.6277 H       1  UNL1        0.1673
     26 C          66.1073   92.0309   15.4014 C.3     1  UNL1        0.0340
     27 C          65.4776   92.7860   16.5343 C.3     1  UNL1        0.0031
     28 C          67.6003   91.9139   15.3163 C.3     1  UNL1        0.0031
@<TRIPOS>BOND
     1    12    13    1
     2    13    14   am
     3    14    15    2
     4    14     1    1
     5     1     2   ar
     6     2     3   ar
     7     3     4   ar
     8     4     5   ar
     9     5     6   ar
    10     6    17    1
    11    17    18    1
    12    17    20    1
    13    20    21   ar
    14    21    22   ar
    15    22    23   ar
    16    23    24   ar
    17    17    26    1
    18    26    27    1
    19    26    28    1
    20     6     7   ar
    21     7     8   ar
    22     8     9   ar
    23     9    10   ar
    24    10    11    1
    25    10     1   ar
    26     9     4   ar
    27    24    20   ar
    28    13    16    1
    29    18    19    1
    30    24    25    1
@<TRIPOS>MOLECULE
*****
 28 30 0 0 0
SMALL
GASTEIGER

@<TRIPOS>ATOM
      1 C          61.2349   86.7167    9.2764 C.ar    1  UNL1        0.0494
      2 C          61.9483   85.8615   10.2813 C.ar    1  UNL1        0.0042
      3 C          62.6839   86.5000   11.4219 C.ar    1  UNL1        0.0001
      4 C          62.7063   87.9937   11.5577 C.ar    1  UNL1       -0.0005
      5 C          63.4420   88.6322   12.6984 C.ar    1  UNL1       -0.0017
      6 C          63.4643   90.1258   12.8341 C.ar    1  UNL1        0.0070
      7 C          62.7509   90.9810   11.8292 C.ar    1  UNL1       -0.0017
      8 C          62.0152   90.3425   10.6886 C.ar    1  UNL1       -0.0005
      9 C          61.9929   88.8489   10.5529 C.ar    1  UNL1       -0.0038
     10 C          61.2572   88.2103    9.4122 C.ar    1  UNL1       -0.0175
     11 C          60.5438   89.0655    8.4073 C.3     1  UNL1        0.0312
     12 C          60.4886   84.5248    6.0533 C.3     1  UNL1        0.1109
     13 N          61.2243   85.1633    7.1939 N.am    1  UNL1       -0.2992
     14 C          60.4991   86.0781    8.1358 C.2     1  UNL1        0.2456
     15 O          59.0383   86.3544    7.9371 O.2     1  UNL1       -0.2702
     16 H          62.1831   84.9820    7.3243 H       1  UNL1        0.1498
     17 C          64.2000   90.7644   13.9748 C.3     1  UNL1        0.1410
     18 O          64.6129   91.8927   13.0768 O.3     1  UNL1       -0.3771
     19 H          64.2533   91.7465   12.1878 H       1  UNL1        0.2112
     20 C          63.7871   89.6361   14.8728 C.ar    1  UNL1        0.0825
     21 C          64.4889   88.3176   15.0117 C.ar    1  UNL1        0.1157
     22 N          63.7355   87.4948   16.0143 N.ar    1  UNL1       -0.2228
     23 C          62.5681   88.3046   16.4951 C.ar    1  UNL1        0.1749
     24 N          62.5999   89.6281   15.7896 N.ar    1  UNL1       -0.3361
     25 H          61.9549   90.3624   15.9075 H       1  UNL1        0.1673
     26 C          64.9357   91.4029   15.1153 C.3     1  UNL1        0.0340
     27 C          66.4289   91.5369   15.0636 C.3     1  UNL1        0.0031
     28 C          64.1783   91.9076   16.3077 C.3     1  UNL1        0.0031
@<TRIPOS>BOND
     1    12    13    1
     2    13    14   am
     3    14    15    2
     4    14     1    1
     5     1     2   ar
     6     2     3   ar
     7     3     4   ar
     8     4     5   ar
     9     5     6   ar
    10     6    17    1
    11    17    18    1
    12    17    20    1
    13    20    21   ar
    14    21    22   ar
    15    22    23   ar
    16    23    24   ar
    17    17    26    1
    18    26    27    1
    19    26    28    1
    20     6     7   ar
    21     7     8   ar
    22     8     9   ar
    23     9    10   ar
    24    10    11    1
    25    10     1   ar
    26     9     4   ar
    27    24    20   ar
    28    13    16    1
    29    18    19    1
    30    24    25    1
