@<TRIPOS>MOLECULE
*****
 32 35 0 0 0
SMALL
GASTEIGER

@<TRIPOS>ATOM
      1 C          61.7344   90.3210   12.1712 C.2     1  UNL1        0.2459
      2 O          61.3193   89.9399   13.5613 O.2     1  UNL1       -0.2730
      3 N          63.0770   90.9468   11.9344 N.am    1  UNL1       -0.2781
      4 C          63.4921   91.3279   10.5443 C.3     1  UNL1        0.0935
      5 C          64.8345   91.9537   10.3075 C.3     1  UNL1        0.0219
      6 C          65.7619   92.1984   11.4608 C.3     1  UNL1        0.0078
      7 C          65.3468   91.8173   12.8509 C.3     1  UNL1        0.0419
      8 C          64.0043   91.1915   13.0877 C.3     1  UNL1        0.0953
      9 C          66.2742   92.0620   14.0042 C.ar    1  UNL1       -0.0209
     10 C          65.7208   92.4610   15.3400 C.ar    1  UNL1       -0.0042
     11 C          66.6481   92.7057   16.4933 C.ar    1  UNL1       -0.0003
     12 C          68.1289   92.5514   16.3108 C.ar    1  UNL1       -0.0000
     13 C          68.6824   92.1523   14.9749 C.ar    1  UNL1       -0.0003
     14 C          67.7550   91.9076   13.8216 C.ar    1  UNL1       -0.0042
     15 C          60.8071   90.0763   11.0179 C.3     1  UNL1        0.1773
     16 C          58.9495   88.5163   11.9486 C.3     1  UNL1        0.1126
     17 N          60.0254   88.7983   10.9421 N.pl3   1  UNL1       -0.2980
     18 C          60.3197   87.8022    9.8598 C.ar    1  UNL1        0.0491
     19 C          59.3070   87.5423    8.7843 C.ar    1  UNL1        0.0154
     20 C          59.6011   86.5462    7.7020 C.ar    1  UNL1        0.0135
     21 C          60.9080   85.8101    7.6953 C.ar    1  UNL1        0.0683
     22 CL         61.2023   84.8140    6.6130 Cl      1  UNL1       -0.0814
     23 C          61.9207   86.0700    8.7709 C.ar    1  UNL1        0.0694
     24 CL         63.2277   85.3338    8.7642 Cl      1  UNL1       -0.0813
     25 C          61.6266   87.0661    9.8532 C.ar    1  UNL1        0.0268
     26 C          63.5892   90.8104   14.4778 C.3     1  UNL1        0.0926
     27 N          63.6745   89.3797   14.9203 N.3     1  UNL1       -0.2670
     28 C          64.2672   88.3466   14.0084 C.3     1  UNL1        0.1047
     29 C          64.3525   86.9159   14.4509 C.3     1  UNL1        0.1595
     30 O          63.8451   86.5182   15.8053 O.3     1  UNL1       -0.3508
     31 C          63.2524   87.5513   16.7173 C.3     1  UNL1        0.1595
     32 C          63.1671   88.9820   16.2748 C.3     1  UNL1        0.1047
@<TRIPOS>BOND
     1    16    17    1
     2    17    15    1
     3    15     1    1
     4     1     2    2
     5     1     3   am
     6     3     4    1
     7     4     5    1
     8     5     6    1
     9     6     7    1
    10     7     9    1
    11     9    10   ar
    12    10    11   ar
    13    11    12   ar
    14    12    13   ar
    15    13    14   ar
    16     7     8    1
    17     8    26    1
    18    26    27    1
    19    27    28    1
    20    28    29    1
    21    29    30    1
    22    30    31    1
    23    31    32    1
    24    17    18    1
    25    18    19   ar
    26    19    20   ar
    27    20    21   ar
    28    21    22    1
    29    21    23   ar
    30    23    24    1
    31    23    25   ar
    32     8     3    1
    33    32    27    1
    34    25    18   ar
    35    14     9   ar
@<TRIPOS>MOLECULE
*****
 32 35 0 0 0
SMALL
GASTEIGER

@<TRIPOS>ATOM
      1 C          61.5332   87.1970   10.6836 C.2     1  UNL1        0.2459
      2 O          60.8892   87.2975   12.0345 O.2     1  UNL1       -0.2730
      3 N          62.2868   85.9574   10.3022 N.am    1  UNL1       -0.2781
      4 C          62.9308   85.8570    8.9512 C.3     1  UNL1        0.0935
      5 C          63.6844   84.6174    8.5699 C.3     1  UNL1        0.0219
      6 C          63.7941   83.4783    9.5396 C.3     1  UNL1        0.0078
      7 C          63.1501   83.5787   10.8906 C.3     1  UNL1        0.0419
      8 C          62.3965   84.8183   11.2719 C.3     1  UNL1        0.0953
      9 C          63.2598   82.4395   11.8603 C.ar    1  UNL1       -0.0209
     10 C          62.2521   81.3288   11.8296 C.ar    1  UNL1       -0.0042
     11 C          62.3618   80.1897   12.7993 C.ar    1  UNL1       -0.0003
     12 C          63.4792   80.1612   13.7996 C.ar    1  UNL1       -0.0000
     13 C          64.4868   81.2718   13.8302 C.ar    1  UNL1       -0.0003
     14 C          64.3772   82.4110   12.8606 C.ar    1  UNL1       -0.0042
     15 C          61.4235   88.3362    9.7139 C.3     1  UNL1        0.1773
     16 C          59.9555   90.4436   10.1062 C.3     1  UNL1        0.1126
     17 N          61.2756   89.7404   10.2201 N.pl3   1  UNL1       -0.2980
     18 C          62.4478   90.4415   10.8402 C.ar    1  UNL1        0.0491
     19 C          63.2569   91.4103   10.0297 C.ar    1  UNL1        0.0154
     20 C          64.4290   92.1114   10.6497 C.ar    1  UNL1        0.0135
     21 C          64.7921   91.8437   12.0802 C.ar    1  UNL1        0.0683
     22 CL         65.9644   92.5448   12.7003 Cl      1  UNL1       -0.0814
     23 C          63.9831   90.8749   12.8907 C.ar    1  UNL1        0.0694
     24 CL         64.3463   90.6072   14.3213 Cl      1  UNL1       -0.0813
     25 C          62.8109   90.1738   12.2707 C.ar    1  UNL1        0.0268
     26 C          61.7525   84.9187   12.6229 C.3     1  UNL1        0.0926
     27 N          62.5975   85.1442   13.8416 N.3     1  UNL1       -0.2670
     28 C          62.2080   84.5222   15.1498 C.3     1  UNL1        0.1047
     29 C          63.0530   84.7476   16.3685 C.3     1  UNL1        0.1595
     30 O          64.2874   85.5951   16.2790 O.3     1  UNL1       -0.3508
     31 C          64.6769   86.2171   14.9708 C.3     1  UNL1        0.1595
     32 C          63.8319   85.9916   13.7521 C.3     1  UNL1        0.1047
@<TRIPOS>BOND
     1    16    17    1
     2    17    15    1
     3    15     1    1
     4     1     2    2
     5     1     3   am
     6     3     4    1
     7     4     5    1
     8     5     6    1
     9     6     7    1
    10     7     9    1
    11     9    10   ar
    12    10    11   ar
    13    11    12   ar
    14    12    13   ar
    15    13    14   ar
    16     7     8    1
    17     8    26    1
    18    26    27    1
    19    27    28    1
    20    28    29    1
    21    29    30    1
    22    30    31    1
    23    31    32    1
    24    17    18    1
    25    18    19   ar
    26    19    20   ar
    27    20    21   ar
    28    21    22    1
    29    21    23   ar
    30    23    24    1
    31    23    25   ar
    32     8     3    1
    33    32    27    1
    34    25    18   ar
    35    14     9   ar
@<TRIPOS>MOLECULE
*****
 32 35 0 0 0
SMALL
GASTEIGER

@<TRIPOS>ATOM
      1 C          63.7965   89.4149   13.1383 C.2     1  UNL1        0.2459
      2 O          64.6292   89.1481   14.3570 O.2     1  UNL1       -0.2730
      3 N          63.1985   88.2714   12.3735 N.am    1  UNL1       -0.2781
      4 C          62.3658   88.5382   11.1547 C.3     1  UNL1        0.0935
      5 C          61.7678   87.3948   10.3900 C.3     1  UNL1        0.0219
      6 C          62.0024   85.9846   10.8440 C.3     1  UNL1        0.0078
      7 C          62.8351   85.7177   12.0627 C.3     1  UNL1        0.0419
      8 C          63.4331   86.8612   12.8275 C.3     1  UNL1        0.0953
      9 C          63.0697   84.3075   12.5168 C.ar    1  UNL1       -0.0209
     10 C          62.1262   83.6663   13.4907 C.ar    1  UNL1       -0.0042
     11 C          62.3609   82.2561   13.9447 C.ar    1  UNL1       -0.0003
     12 C          63.5390   81.4870   13.4248 C.ar    1  UNL1       -0.0000
     13 C          64.4825   82.1281   12.4508 C.ar    1  UNL1       -0.0003
     14 C          64.2479   83.5384   11.9968 C.ar    1  UNL1       -0.0042
     15 C          63.5619   90.8251   12.6843 C.3     1  UNL1        0.1773
     16 C          64.8250   92.3423   10.9953 C.3     1  UNL1        0.1126
     17 N          64.7268   91.7097   12.3518 N.pl3   1  UNL1       -0.2980
     18 C          65.7936   91.9616   13.3758 C.ar    1  UNL1        0.0491
     19 C          65.4137   92.3202   14.7819 C.ar    1  UNL1        0.0154
     20 C          66.4804   92.5721   15.8059 C.ar    1  UNL1        0.0135
     21 C          67.9270   92.4654   15.4238 C.ar    1  UNL1        0.0683
     22 CL         68.9938   92.7173   16.4479 Cl      1  UNL1       -0.0814
     23 C          68.3068   92.1068   14.0177 C.ar    1  UNL1        0.0694
     24 CL         69.7535   92.0001   13.6357 Cl      1  UNL1       -0.0813
     25 C          67.2401   91.8549   12.9937 C.ar    1  UNL1        0.0268
     26 C          64.2658   86.5944   14.0463 C.3     1  UNL1        0.0926
     27 N          63.6132   86.4936   15.3932 N.3     1  UNL1       -0.2670
     28 C          63.4364   87.7227   16.2347 C.3     1  UNL1        0.1047
     29 C          62.7838   87.6219   17.5815 C.3     1  UNL1        0.1595
     30 O          62.3081   86.2922   18.0868 O.3     1  UNL1       -0.3508
     31 C          62.4849   85.0630   17.2453 C.3     1  UNL1        0.1595
     32 C          63.1375   85.1638   15.8985 C.3     1  UNL1        0.1047
@<TRIPOS>BOND
     1    16    17    1
     2    17    15    1
     3    15     1    1
     4     1     2    2
     5     1     3   am
     6     3     4    1
     7     4     5    1
     8     5     6    1
     9     6     7    1
    10     7     9    1
    11     9    10   ar
    12    10    11   ar
    13    11    12   ar
    14    12    13   ar
    15    13    14   ar
    16     7     8    1
    17     8    26    1
    18    26    27    1
    19    27    28    1
    20    28    29    1
    21    29    30    1
    22    30    31    1
    23    31    32    1
    24    17    18    1
    25    18    19   ar
    26    19    20   ar
    27    20    21   ar
    28    21    22    1
    29    21    23   ar
    30    23    24    1
    31    23    25   ar
    32     8     3    1
    33    32    27    1
    34    25    18   ar
    35    14     9   ar
@<TRIPOS>MOLECULE
*****
 32 35 0 0 0
SMALL
GASTEIGER

@<TRIPOS>ATOM
      1 C          64.2738   89.9018   13.3979 C.2     1  UNL1        0.2459
      2 O          65.0632   89.5346   14.6193 O.2     1  UNL1       -0.2730
      3 N          63.5743   88.8354   12.6082 N.am    1  UNL1       -0.2781
      4 C          62.7848   89.2026   11.3868 C.3     1  UNL1        0.0935
      5 C          62.0854   88.1362   10.5973 C.3     1  UNL1        0.0219
      6 C          62.1754   86.7025   11.0291 C.3     1  UNL1        0.0078
      7 C          62.9648   86.3353   12.2505 C.3     1  UNL1        0.0419
      8 C          63.6643   87.4017   13.0401 C.3     1  UNL1        0.0953
      9 C          63.0548   84.9016   12.6823 C.ar    1  UNL1       -0.0209
     10 C          62.0564   84.3471   13.6547 C.ar    1  UNL1       -0.0042
     11 C          62.1464   82.9134   14.0866 C.ar    1  UNL1       -0.0003
     12 C          63.2348   82.0342   13.5460 C.ar    1  UNL1       -0.0000
     13 C          64.2332   82.5887   12.5736 C.ar    1  UNL1       -0.0003
     14 C          64.1432   84.0224   12.1417 C.ar    1  UNL1       -0.0042
     15 C          64.1838   91.3355   12.9661 C.3     1  UNL1        0.1773
     16 C          65.8578   92.4904   14.5828 C.3     1  UNL1        0.1126
     17 N          65.3420   92.2612   13.1930 N.pl3   1  UNL1       -0.2980
     18 C          65.9843   92.9579   12.0302 C.ar    1  UNL1        0.0491
     19 C          65.7571   94.4251   11.8162 C.ar    1  UNL1        0.0154
     20 C          66.3994   95.1217   10.6534 C.ar    1  UNL1        0.0135
     21 C          67.2690   94.3512    9.7047 C.ar    1  UNL1        0.0683
     22 CL         67.9114   95.0479    8.5419 Cl      1  UNL1       -0.0814
     23 C          67.4963   92.8841    9.9187 C.ar    1  UNL1        0.0694
     24 CL         68.3659   92.1136    8.9699 Cl      1  UNL1       -0.0813
     25 C          66.8539   92.1874   11.0815 C.ar    1  UNL1        0.0268
     26 C          64.4538   87.0345   14.2616 C.3     1  UNL1        0.0926
     27 N          63.7535   86.8195   15.5705 N.3     1  UNL1       -0.2670
     28 C          63.4763   85.4265   16.0529 C.3     1  UNL1        0.1047
     29 C          62.7760   85.2116   17.3619 C.3     1  UNL1        0.1595
     30 O          62.3530   86.3896   18.1885 O.3     1  UNL1       -0.3508
     31 C          62.6303   87.7826   17.7062 C.3     1  UNL1        0.1595
     32 C          63.3305   87.9976   16.3972 C.3     1  UNL1        0.1047
@<TRIPOS>BOND
     1    16    17    1
     2    17    15    1
     3    15     1    1
     4     1     2    2
     5     1     3   am
     6     3     4    1
     7     4     5    1
     8     5     6    1
     9     6     7    1
    10     7     9    1
    11     9    10   ar
    12    10    11   ar
    13    11    12   ar
    14    12    13   ar
    15    13    14   ar
    16     7     8    1
    17     8    26    1
    18    26    27    1
    19    27    28    1
    20    28    29    1
    21    29    30    1
    22    30    31    1
    23    31    32    1
    24    17    18    1
    25    18    19   ar
    26    19    20   ar
    27    20    21   ar
    28    21    22    1
    29    21    23   ar
    30    23    24    1
    31    23    25   ar
    32     8     3    1
    33    32    27    1
    34    25    18   ar
    35    14     9   ar
@<TRIPOS>MOLECULE
*****
 32 35 0 0 0
SMALL
GASTEIGER

@<TRIPOS>ATOM
      1 C          64.0308   89.5256   14.9138 C.2     1  UNL1        0.2459
      2 O          64.4747   89.4124   13.4855 O.2     1  UNL1       -0.2730
      3 N          63.6226   88.2973   15.6720 N.am    1  UNL1       -0.2781
      4 C          63.1787   88.4105   17.1003 C.3     1  UNL1        0.0935
      5 C          62.7706   87.1823   17.8584 C.3     1  UNL1        0.0219
      6 C          62.8063   85.8408   17.1881 C.3     1  UNL1        0.0078
      7 C          63.2502   85.7276   15.7598 C.3     1  UNL1        0.0419
      8 C          63.6584   86.9559   15.0018 C.3     1  UNL1        0.0953
      9 C          63.2859   84.3861   15.0896 C.ar    1  UNL1       -0.0209
     10 C          64.5548   83.8977   14.4562 C.ar    1  UNL1       -0.0042
     11 C          64.5905   82.5563   13.7860 C.ar    1  UNL1       -0.0003
     12 C          63.3573   81.7032   13.7492 C.ar    1  UNL1       -0.0000
     13 C          62.0884   82.1916   14.3825 C.ar    1  UNL1       -0.0003
     14 C          62.0527   83.5331   15.0528 C.ar    1  UNL1       -0.0042
     15 C          63.9951   90.8671   15.5840 C.3     1  UNL1        0.1773
     16 C          65.6276   92.5578   16.6915 C.3     1  UNL1        0.1126
     17 N          65.1770   91.7856   15.4870 N.pl3   1  UNL1       -0.2980
     18 C          65.9083   91.9321   14.1855 C.ar    1  UNL1        0.0491
     19 C          67.3760   91.6316   14.1121 C.ar    1  UNL1        0.0154
     20 C          68.1073   91.7780   12.8106 C.ar    1  UNL1        0.0135
     21 C          67.3709   92.2249   11.5827 C.ar    1  UNL1        0.0683
     22 CL         68.1022   92.3714   10.2812 Cl      1  UNL1       -0.0814
     23 C          65.9031   92.5254   11.6562 C.ar    1  UNL1        0.0694
     24 CL         65.1666   92.9723   10.4282 Cl      1  UNL1       -0.0813
     25 C          65.1718   92.3790   12.9576 C.ar    1  UNL1        0.0268
     26 C          64.1023   86.8427   13.5734 C.3     1  UNL1        0.0926
     27 N          63.0863   86.8448   12.4698 N.3     1  UNL1       -0.2670
     28 C          62.5743   85.5468   11.9193 C.3     1  UNL1        0.1047
     29 C          61.5583   85.5489   10.8158 C.3     1  UNL1        0.1595
     30 O          61.0543   86.8489   10.2628 O.3     1  UNL1       -0.3508
     31 C          61.5663   88.1470   10.8133 C.3     1  UNL1        0.1595
     32 C          62.5823   88.1449   11.9168 C.3     1  UNL1        0.1047
@<TRIPOS>BOND
     1    16    17    1
     2    17    15    1
     3    15     1    1
     4     1     2    2
     5     1     3   am
     6     3     4    1
     7     4     5    1
     8     5     6    1
     9     6     7    1
    10     7     9    1
    11     9    10   ar
    12    10    11   ar
    13    11    12   ar
    14    12    13   ar
    15    13    14   ar
    16     7     8    1
    17     8    26    1
    18    26    27    1
    19    27    28    1
    20    28    29    1
    21    29    30    1
    22    30    31    1
    23    31    32    1
    24    17    18    1
    25    18    19   ar
    26    19    20   ar
    27    20    21   ar
    28    21    22    1
    29    21    23   ar
    30    23    24    1
    31    23    25   ar
    32     8     3    1
    33    32    27    1
    34    25    18   ar
    35    14     9   ar
@<TRIPOS>MOLECULE
*****
 32 35 0 0 0
SMALL
GASTEIGER

@<TRIPOS>ATOM
      1 C          63.0628   88.1721   12.7357 C.2     1  UNL1        0.2459
      2 O          61.8871   88.0133   11.8179 O.2     1  UNL1       -0.2730
      3 N          63.6629   86.9689   13.4009 N.am    1  UNL1       -0.2781
      4 C          64.8386   87.1277   14.3188 C.3     1  UNL1        0.0935
      5 C          65.4385   85.9246   14.9839 C.3     1  UNL1        0.0219
      6 C          64.8628   84.5627   14.7313 C.3     1  UNL1        0.0078
      7 C          63.6871   84.4039   13.8134 C.3     1  UNL1        0.0419
      8 C          63.0871   85.6070   13.1483 C.3     1  UNL1        0.0953
      9 C          63.1114   83.0421   13.5608 C.ar    1  UNL1       -0.0209
     10 C          63.6309   82.2064   12.4287 C.ar    1  UNL1       -0.0042
     11 C          63.0552   80.8445   12.1761 C.ar    1  UNL1       -0.0003
     12 C          61.9599   80.3183   13.0555 C.ar    1  UNL1       -0.0000
     13 C          61.4403   81.1540   14.1875 C.ar    1  UNL1       -0.0003
     14 C          62.0161   82.5159   14.4402 C.ar    1  UNL1       -0.0042
     15 C          63.6386   89.5339   12.9883 C.3     1  UNL1        0.1773
     16 C          62.6622   89.7044   15.3899 C.3     1  UNL1        0.1126
     17 N          63.7184   90.0665   14.3883 N.pl3   1  UNL1       -0.2980
     18 C          64.8545   90.9613   14.7867 C.ar    1  UNL1        0.0491
     19 C          64.7533   91.7932   16.0308 C.ar    1  UNL1        0.0154
     20 C          65.8894   92.6879   16.4292 C.ar    1  UNL1        0.0135
     21 C          67.1266   92.7508   15.5836 C.ar    1  UNL1        0.0683
     22 CL         68.2627   93.6456   15.9820 Cl      1  UNL1       -0.0814
     23 C          67.2278   91.9190   14.3395 C.ar    1  UNL1        0.0694
     24 CL         68.4652   91.9819   13.4938 Cl      1  UNL1       -0.0813
     25 C          66.0918   91.0242   13.9410 C.ar    1  UNL1        0.0268
     26 C          61.9114   85.4483   12.2304 C.3     1  UNL1        0.0926
     27 N          62.1230   85.3678   10.7476 N.3     1  UNL1       -0.2670
     28 C          63.2880   84.6001   10.1968 C.3     1  UNL1        0.1047
     29 C          63.4997   84.5196    8.7140 C.3     1  UNL1        0.1595
     30 O          62.5463   85.2068    7.7819 O.3     1  UNL1       -0.3508
     31 C          61.3812   85.9745    8.3327 C.3     1  UNL1        0.1595
     32 C          61.1696   86.0551    9.8155 C.3     1  UNL1        0.1047
@<TRIPOS>BOND
     1    16    17    1
     2    17    15    1
     3    15     1    1
     4     1     2    2
     5     1     3   am
     6     3     4    1
     7     4     5    1
     8     5     6    1
     9     6     7    1
    10     7     9    1
    11     9    10   ar
    12    10    11   ar
    13    11    12   ar
    14    12    13   ar
    15    13    14   ar
    16     7     8    1
    17     8    26    1
    18    26    27    1
    19    27    28    1
    20    28    29    1
    21    29    30    1
    22    30    31    1
    23    31    32    1
    24    17    18    1
    25    18    19   ar
    26    19    20   ar
    27    20    21   ar
    28    21    22    1
    29    21    23   ar
    30    23    24    1
    31    23    25   ar
    32     8     3    1
    33    32    27    1
    34    25    18   ar
    35    14     9   ar
@<TRIPOS>MOLECULE
*****
 32 35 0 0 0
SMALL
GASTEIGER

@<TRIPOS>ATOM
      1 C          62.9763   86.6053   12.2859 C.2     1  UNL1        0.2459
      2 O          63.6918   85.8194   13.3444 O.2     1  UNL1       -0.2730
      3 N          63.0742   88.1021   12.2682 N.am    1  UNL1       -0.2781
      4 C          62.3587   88.8880   11.2097 C.3     1  UNL1        0.0935
      5 C          62.4567   90.3846   11.1921 C.3     1  UNL1        0.0219
      6 C          63.2700   91.0954   12.2328 C.3     1  UNL1        0.0078
      7 C          63.9855   90.3095   13.2913 C.3     1  UNL1        0.0419
      8 C          63.8876   88.8128   13.3090 C.3     1  UNL1        0.0953
      9 C          64.7989   91.0202   14.3321 C.ar    1  UNL1       -0.0209
     10 C          64.1539   91.4715   15.6089 C.ar    1  UNL1       -0.0042
     11 C          64.9673   92.1822   16.6497 C.ar    1  UNL1       -0.0003
     12 C          66.4257   92.4418   16.4137 C.ar    1  UNL1       -0.0000
     13 C          67.0707   91.9905   15.1368 C.ar    1  UNL1       -0.0003
     14 C          66.2573   91.2798   14.0961 C.ar    1  UNL1       -0.0042
     15 C          62.1629   85.8946   11.2451 C.3     1  UNL1        0.1773
     16 C          63.3289   84.9194    9.1381 C.3     1  UNL1        0.1126
     17 N          62.7457   84.7263   10.5066 N.pl3   1  UNL1       -0.2980
     18 C          62.7454   83.3649   11.1365 C.ar    1  UNL1        0.0491
     19 C          63.3009   82.1911   10.3858 C.ar    1  UNL1        0.0154
     20 C          63.3006   80.8298   11.0156 C.ar    1  UNL1        0.0135
     21 C          62.7448   80.6423   12.3961 C.ar    1  UNL1        0.0683
     22 CL         62.7445   79.2809   13.0260 Cl      1  UNL1       -0.0814
     23 C          62.1894   81.8161   13.1468 C.ar    1  UNL1        0.0694
     24 CL         61.6336   81.6285   14.5275 Cl      1  UNL1       -0.0813
     25 C          62.1897   83.1774   12.5170 C.ar    1  UNL1        0.0268
     26 C          64.6031   88.0268   14.3675 C.3     1  UNL1        0.0926
     27 N          63.8420   87.4799   15.5386 N.3     1  UNL1       -0.2670
     28 C          63.8154   86.0016   15.7916 C.3     1  UNL1        0.1047
     29 C          63.0543   85.4547   16.9627 C.3     1  UNL1        0.1595
     30 O          62.3198   86.3860   17.8809 O.3     1  UNL1       -0.3508
     31 C          62.3464   87.8643   17.6280 C.3     1  UNL1        0.1595
     32 C          63.1075   88.4113   16.4569 C.3     1  UNL1        0.1047
@<TRIPOS>BOND
     1    16    17    1
     2    17    15    1
     3    15     1    1
     4     1     2    2
     5     1     3   am
     6     3     4    1
     7     4     5    1
     8     5     6    1
     9     6     7    1
    10     7     9    1
    11     9    10   ar
    12    10    11   ar
    13    11    12   ar
    14    12    13   ar
    15    13    14   ar
    16     7     8    1
    17     8    26    1
    18    26    27    1
    19    27    28    1
    20    28    29    1
    21    29    30    1
    22    30    31    1
    23    31    32    1
    24    17    18    1
    25    18    19   ar
    26    19    20   ar
    27    20    21   ar
    28    21    22    1
    29    21    23   ar
    30    23    24    1
    31    23    25   ar
    32     8     3    1
    33    32    27    1
    34    25    18   ar
    35    14     9   ar
@<TRIPOS>MOLECULE
*****
 32 35 0 0 0
SMALL
GASTEIGER

@<TRIPOS>ATOM
      1 C          62.9859   87.9497   12.6551 C.2     1  UNL1        0.2459
      2 O          61.8488   87.7644   11.6946 O.2     1  UNL1       -0.2730
      3 N          63.5760   86.7625   13.3568 N.am    1  UNL1       -0.2781
      4 C          64.7131   86.9478   14.3173 C.3     1  UNL1        0.0935
      5 C          65.3031   85.7606   15.0190 C.3     1  UNL1        0.0219
      6 C          64.7560   84.3881   14.7602 C.3     1  UNL1        0.0078
      7 C          63.6189   84.2028   13.7996 C.3     1  UNL1        0.0419
      8 C          63.0289   85.3900   13.0980 C.3     1  UNL1        0.0953
      9 C          63.0718   82.8303   13.5408 C.ar    1  UNL1       -0.0209
     10 C          61.9589   82.2939   14.3914 C.ar    1  UNL1       -0.0042
     11 C          61.4118   80.9214   14.1325 C.ar    1  UNL1       -0.0003
     12 C          61.9777   80.0854   13.0231 C.ar    1  UNL1       -0.0000
     13 C          63.0906   80.6218   12.1726 C.ar    1  UNL1       -0.0003
     14 C          63.6377   81.9943   12.4314 C.ar    1  UNL1       -0.0042
     15 C          63.5329   89.3222   12.9139 C.3     1  UNL1        0.1773
     16 C          61.8297   90.4734   11.3254 C.3     1  UNL1        0.1126
     17 N          63.1657   90.4593   12.0072 N.pl3   1  UNL1       -0.2980
     18 C          64.1344   91.5823   11.7823 C.ar    1  UNL1        0.0491
     19 C          64.2879   92.1777   10.4142 C.ar    1  UNL1        0.0154
     20 C          65.2566   93.3006   10.1892 C.ar    1  UNL1        0.0135
     21 C          66.0717   93.8282   11.3325 C.ar    1  UNL1        0.0683
     22 CL         67.0405   94.9512   11.1076 Cl      1  UNL1       -0.0814
     23 C          65.9182   93.2328   12.7007 C.ar    1  UNL1        0.0694
     24 CL         66.7335   93.7604   13.8440 Cl      1  UNL1       -0.0813
     25 C          64.9496   92.1098   12.9256 C.ar    1  UNL1        0.0268
     26 C          61.8917   85.2048   12.1374 C.3     1  UNL1        0.0926
     27 N          62.1538   85.1805   10.6607 N.3     1  UNL1       -0.2670
     28 C          63.3410   84.4390   10.1217 C.3     1  UNL1        0.1047
     29 C          63.6031   84.4147    8.6450 C.3     1  UNL1        0.1595
     30 O          62.6779   85.1320    7.7072 O.3     1  UNL1       -0.3508
     31 C          61.4906   85.8736    8.2461 C.3     1  UNL1        0.1595
     32 C          61.2285   85.8979    9.7229 C.3     1  UNL1        0.1047
@<TRIPOS>BOND
     1    16    17    1
     2    17    15    1
     3    15     1    1
     4     1     2    2
     5     1     3   am
     6     3     4    1
     7     4     5    1
     8     5     6    1
     9     6     7    1
    10     7     9    1
    11     9    10   ar
    12    10    11   ar
    13    11    12   ar
    14    12    13   ar
    15    13    14   ar
    16     7     8    1
    17     8    26    1
    18    26    27    1
    19    27    28    1
    20    28    29    1
    21    29    30    1
    22    30    31    1
    23    31    32    1
    24    17    18    1
    25    18    19   ar
    26    19    20   ar
    27    20    21   ar
    28    21    22    1
    29    21    23   ar
    30    23    24    1
    31    23    25   ar
    32     8     3    1
    33    32    27    1
    34    25    18   ar
    35    14     9   ar
@<TRIPOS>MOLECULE
*****
 32 35 0 0 0
SMALL
GASTEIGER

@<TRIPOS>ATOM
      1 C          60.9861   87.6386   10.1228 C.2     1  UNL1        0.2459
      2 O          60.4228   87.7619   11.5075 O.2     1  UNL1       -0.2730
      3 N          61.8359   86.4565    9.7613 N.am    1  UNL1       -0.2781
      4 C          62.3992   86.3332    8.3766 C.3     1  UNL1        0.0935
      5 C          63.2489   85.1511    8.0151 C.3     1  UNL1        0.0219
      6 C          63.5353   84.0924    9.0384 C.3     1  UNL1        0.0078
      7 C          62.9721   84.2157   10.4231 C.3     1  UNL1        0.0419
      8 C          62.1223   85.3978   10.7845 C.3     1  UNL1        0.0953
      9 C          63.2585   83.1570   11.4464 C.ar    1  UNL1       -0.0209
     10 C          64.5810   83.1358   12.1537 C.ar    1  UNL1       -0.0042
     11 C          64.8675   82.0771   13.1770 C.ar    1  UNL1       -0.0003
     12 C          63.8313   81.0395   13.4929 C.ar    1  UNL1       -0.0000
     13 C          62.5088   81.0607   12.7855 C.ar    1  UNL1       -0.0003
     14 C          62.2224   82.1194   11.7623 C.ar    1  UNL1       -0.0042
     15 C          60.6997   88.6973    9.0995 C.3     1  UNL1        0.1773
     16 C          58.9155   87.1619    8.0000 C.3     1  UNL1        0.1126
     17 N          59.7173   88.4296    7.9981 N.pl3   1  UNL1       -0.2980
     18 C          59.5367   89.4296    6.8947 C.ar    1  UNL1        0.0491
     19 C          60.7354   90.0037    6.1992 C.ar    1  UNL1        0.0154
     20 C          60.5549   91.0036    5.0959 C.ar    1  UNL1        0.0135
     21 C          59.1757   91.4295    4.6880 C.ar    1  UNL1        0.0683
     22 CL         58.9951   92.4295    3.5845 Cl      1  UNL1       -0.0814
     23 C          57.9770   90.8554    5.3834 C.ar    1  UNL1        0.0694
     24 CL         56.5978   91.2814    4.9754 Cl      1  UNL1       -0.0813
     25 C          58.1576   89.8555    6.4868 C.ar    1  UNL1        0.0268
     26 C          61.5590   85.5211   12.1693 C.3     1  UNL1        0.0926
     27 N          62.4738   85.4815   13.3574 N.3     1  UNL1       -0.2670
     28 C          63.6223   86.4417   13.4520 C.3     1  UNL1        0.1047
     29 C          64.5371   86.4020   14.6401 C.3     1  UNL1        0.1595
     30 O          64.3034   85.4022   15.7336 O.3     1  UNL1       -0.3508
     31 C          63.1548   84.4420   15.6390 C.3     1  UNL1        0.1595
     32 C          62.2400   84.4816   14.4509 C.3     1  UNL1        0.1047
@<TRIPOS>BOND
     1    16    17    1
     2    17    15    1
     3    15     1    1
     4     1     2    2
     5     1     3   am
     6     3     4    1
     7     4     5    1
     8     5     6    1
     9     6     7    1
    10     7     9    1
    11     9    10   ar
    12    10    11   ar
    13    11    12   ar
    14    12    13   ar
    15    13    14   ar
    16     7     8    1
    17     8    26    1
    18    26    27    1
    19    27    28    1
    20    28    29    1
    21    29    30    1
    22    30    31    1
    23    31    32    1
    24    17    18    1
    25    18    19   ar
    26    19    20   ar
    27    20    21   ar
    28    21    22    1
    29    21    23   ar
    30    23    24    1
    31    23    25   ar
    32     8     3    1
    33    32    27    1
    34    25    18   ar
    35    14     9   ar
