@<TRIPOS>MOLECULE
*****
 45 51 0 0 0
SMALL
GASTEIGER

@<TRIPOS>ATOM
      1 C          63.4914   83.6806   12.4049 C.ar    1  UNL1        0.0907
      2 C          62.7002   82.9190   11.3832 C.ar    1  UNL1        0.1496
      3 O          61.9474   83.9106   10.5465 O.2     1  UNL1       -0.4533
      4 C          62.2735   85.2851   11.0511 C.ar    1  UNL1        0.1467
      5 C          61.8247   86.6477   10.6132 C.ar    1  UNL1        0.0536
      6 C          62.3303   87.8682   11.3238 C.ar    1  UNL1        0.0730
      7 C          63.2845   87.7260   12.4723 C.ar    1  UNL1        0.0327
      8 C          63.7332   86.3633   12.9103 C.ar    1  UNL1        0.0061
      9 C          63.2278   85.1429   12.1997 C.ar    1  UNL1        0.0420
     10 C          63.7901   88.9465   13.1830 C.ar    1  UNL1        0.0825
     11 C          63.7804   88.9994   14.6820 C.ar    1  UNL1        0.0189
     12 C          64.2859   90.2198   15.3926 C.ar    1  UNL1       -0.0011
     13 C          64.8011   91.3873   14.6042 C.ar    1  UNL1       -0.0011
     14 C          64.8108   91.3343   13.1052 C.ar    1  UNL1        0.0931
     15 N          64.3053   90.1139   12.3946 N.ar    1  UNL1       -0.2442
     16 C          65.3260   92.5018   12.3168 C.ar    1  UNL1        0.0775
     17 C          65.4580   92.7366   10.8412 C.ar    1  UNL1        0.0224
     18 C          66.0451   94.1022   10.6399 C.ar    1  UNL1        0.0447
     19 C          66.3993   94.8697    9.4008 C.ar    1  UNL1        0.1415
     20 F          66.1685   94.2606    8.0495 F       1  UNL1       -0.2041
     21 C          66.9844   96.2464    9.5128 C.ar    1  UNL1        0.0297
     22 C          67.2152   96.8555   10.8640 C.ar    1  UNL1        0.0038
     23 C          66.8610   96.0880   12.1031 C.ar    1  UNL1        0.0173
     24 C          66.2759   94.7113   11.9910 C.ar    1  UNL1        0.0621
     25 N          65.8315   93.7222   13.0274 N.ar    1  UNL1       -0.3256
     26 C          65.8218   93.7752   14.5265 C.3     1  UNL1        0.1108
     27 C          65.3066   92.6077   15.3149 C.3     1  UNL1        0.0524
     28 C          62.6674   81.4276   11.2258 C.ar    1  UNL1        0.0349
     29 C          62.8595   80.8120    9.8716 C.ar    1  UNL1        0.0053
     30 C          62.8268   79.3207    9.7141 C.ar    1  UNL1        0.0297
     31 C          62.6019   78.4450   10.9110 C.ar    1  UNL1        0.1401
     32 F          62.5691   76.9535   10.7536 F       1  UNL1       -0.2042
     33 C          62.4097   79.0606   12.2653 C.ar    1  UNL1        0.0297
     34 C          62.4425   80.5519   12.4227 C.ar    1  UNL1        0.0053
     35 C          65.1488   82.9055   15.9266 C.3     1  UNL1        0.1109
     36 N          64.2514   83.5016   14.8829 N.am    1  UNL1       -0.2991
     37 C          64.3889   83.0845   13.4486 C.2     1  UNL1        0.2490
     38 O          65.4238   82.0714   13.0581 O.2     1  UNL1       -0.2700
     39 H          63.5721   84.1665   15.1393 H       1  UNL1        0.1498
     40 N          61.8815   89.2309   10.8858 N.pl3   1  UNL1       -0.1924
     41 C          62.7922   90.0912   10.0610 C.3     1  UNL1        0.1388
     42 S          60.5221   89.7331   11.2728 S.O2    1  UNL1        0.0588
     43 C          59.1627   90.2354   11.6597 C.3     1  UNL1        0.1999
     44 O          60.9233   89.7059   12.7179 O.2     1  UNL1       -0.1542
     45 O          60.1209   89.7604    9.8277 O.2     1  UNL1       -0.1542
@<TRIPOS>BOND
     1    35    36    1
     2    36    37   am
     3    37    38    2
     4    37     1    1
     5     1     2   ar
     6     2    28    1
     7    28    29   ar
     8    29    30   ar
     9    30    31   ar
    10    31    32    1
    11    31    33   ar
    12    33    34   ar
    13     2     3   ar
    14     3     4   ar
    15     4     5   ar
    16     5     6   ar
    17     6    40    1
    18    40    41    1
    19    40    42    1
    20    42    43    1
    21    42    44    2
    22    42    45    2
    23     6     7   ar
    24     7    10    1
    25    10    11   ar
    26    11    12   ar
    27    12    13   ar
    28    13    14   ar
    29    14    15   ar
    30    14    16    1
    31    16    17   ar
    32    17    18   ar
    33    18    19   ar
    34    19    20    1
    35    19    21   ar
    36    21    22   ar
    37    22    23   ar
    38    23    24   ar
    39    24    25   ar
    40    25    26    1
    41    26    27    1
    42     7     8   ar
    43     8     9   ar
    44     9     1   ar
    45    34    28   ar
    46     9     4   ar
    47    15    10   ar
    48    25    16   ar
    49    27    13    1
    50    24    18   ar
    51    36    39    1
