@<TRIPOS>MOLECULE
*****
 39 44 0 0 0
SMALL
GASTEIGER

@<TRIPOS>ATOM
      1 C          63.0041   86.1956   16.7852 C.2     1  UNL1        0.2553
      2 O          62.0904   86.3543   17.9643 O.2     1  UNL1       -0.2720
      3 N          63.4883   87.4061   16.0434 N.am    1  UNL1       -0.2773
      4 C          63.0588   88.7752   16.4806 C.3     1  UNL1        0.0952
      5 C          63.5430   89.9857   15.7387 C.3     1  UNL1        0.0416
      6 C          64.4567   89.8270   14.5596 C.3     1  UNL1        0.0806
      7 C          64.8861   88.4579   14.1225 C.3     1  UNL1        0.0416
      8 C          64.4019   87.2474   14.8644 C.3     1  UNL1        0.0952
      9 N          64.9409   91.0374   13.8178 N.pl3   1  UNL1       -0.2876
     10 C          64.4317   91.3237   12.4361 C.ar    1  UNL1        0.0576
     11 C          63.4383   90.3996   11.7964 C.ar    1  UNL1        0.0153
     12 C          62.9292   90.6859   10.4149 C.ar    1  UNL1        0.0013
     13 C          63.4134   91.8964    9.6730 C.ar    1  UNL1        0.0006
     14 C          64.4067   92.8205   10.3127 C.ar    1  UNL1        0.0077
     15 C          64.9159   92.5342   11.6943 C.ar    1  UNL1        0.0431
     16 S          65.9092   93.4583   12.3340 S.3     1  UNL1       -0.0844
     17 C          66.4184   93.1720   13.7156 C.ar    1  UNL1        0.0431
     18 C          67.4118   94.0961   14.3554 C.ar    1  UNL1        0.0077
     19 C          67.9209   93.8098   15.7369 C.ar    1  UNL1        0.0006
     20 C          67.4367   92.5993   16.4788 C.ar    1  UNL1        0.0013
     21 C          66.4434   91.6752   15.8391 C.ar    1  UNL1        0.0153
     22 C          65.9342   91.9615   14.4575 C.ar    1  UNL1        0.0576
     23 N          62.3977   82.4810   14.7906 N.3     1  UNL1       -0.2688
     24 C          63.7698   82.4331   15.3948 C.3     1  UNL1        0.0756
     25 C          64.2877   83.6059   16.1735 C.3     1  UNL1        0.0590
     26 C          63.4335   84.8265   16.3481 C.3     1  UNL1        0.2042
     27 F          64.6564   85.2541   17.1041 F       1  UNL1       -0.2306
     28 C          62.0614   84.8744   15.7439 C.3     1  UNL1        0.0590
     29 C          61.5435   83.7017   14.9652 C.3     1  UNL1        0.0756
     30 C          61.8797   81.3084   14.0118 C.3     1  UNL1        0.0993
     31 N          62.7810   78.0019   10.1060 N.pl3   1  UNL1       -0.3426
     32 C          62.8430   79.3886   10.6747 C.ar    1  UNL1        0.1251
     33 C          62.3304   79.6551   12.0589 C.ar    1  UNL1        0.0310
     34 C          62.3924   81.0418   12.6276 C.ar    1  UNL1       -0.0018
     35 C          62.9672   82.1618   11.8121 C.ar    1  UNL1        0.0179
     36 C          63.4799   81.8953   10.4278 C.ar    1  UNL1        0.1000
     37 N          63.4178   80.5086    9.8592 N.ar    1  UNL1       -0.2296
     38 H          62.4037   77.2668   10.6413 H       1  UNL1        0.1437
     39 H          63.1175   77.8270    9.1975 H       1  UNL1        0.1437
@<TRIPOS>BOND
     1    31    32    1
     2    32    33   ar
     3    33    34   ar
     4    34    30    1
     5    30    23    1
     6    23    24    1
     7    24    25    1
     8    25    26    1
     9    26    27    1
    10    26     1    1
    11     1     2    2
    12     1     3   am
    13     3     4    1
    14     4     5    1
    15     5     6    1
    16     6     9    1
    17     9    10    1
    18    10    11   ar
    19    11    12   ar
    20    12    13   ar
    21    13    14   ar
    22    14    15   ar
    23    15    16    1
    24    16    17    1
    25    17    18   ar
    26    18    19   ar
    27    19    20   ar
    28    20    21   ar
    29    21    22   ar
    30     6     7    1
    31     7     8    1
    32    26    28    1
    33    28    29    1
    34    34    35   ar
    35    35    36   ar
    36    36    37   ar
    37    37    32   ar
    38    29    23    1
    39     8     3    1
    40    22     9    1
    41    15    10   ar
    42    22    17   ar
    43    31    38    1
    44    31    39    1
@<TRIPOS>MOLECULE
*****
 39 44 0 0 0
SMALL
GASTEIGER

@<TRIPOS>ATOM
      1 C          62.9917   86.2271   16.7989 C.2     1  UNL1        0.2553
      2 O          62.0426   86.3861   17.9496 O.2     1  UNL1       -0.2720
      3 N          63.4852   87.4363   16.0612 N.am    1  UNL1       -0.2773
      4 C          63.0297   88.8046   16.4743 C.3     1  UNL1        0.0952
      5 C          63.5233   90.0138   15.7366 C.3     1  UNL1        0.0416
      6 C          64.4723   89.8548   14.5859 C.3     1  UNL1        0.0806
      7 C          64.9278   88.4867   14.1729 C.3     1  UNL1        0.0416
      8 C          64.4342   87.2774   14.9106 C.3     1  UNL1        0.0952
      9 N          64.9659   91.0641   13.8483 N.pl3   1  UNL1       -0.2876
     10 C          65.9669   91.9779   14.4910 C.ar    1  UNL1        0.0576
     11 C          66.4743   91.6825   15.8713 C.ar    1  UNL1        0.0153
     12 C          67.4752   92.5963   16.5139 C.ar    1  UNL1        0.0013
     13 C          67.9688   93.8055   15.7763 C.ar    1  UNL1        0.0006
     14 C          67.4614   94.1009   14.3960 C.ar    1  UNL1        0.0077
     15 C          66.4605   93.1871   13.7533 C.ar    1  UNL1        0.0431
     16 S          65.9530   93.4826   12.3730 S.3     1  UNL1       -0.0844
     17 C          64.9521   92.5688   11.7303 C.ar    1  UNL1        0.0431
     18 C          64.4447   92.8642   10.3500 C.ar    1  UNL1        0.0077
     19 C          63.4437   91.9504    9.7074 C.ar    1  UNL1        0.0006
     20 C          62.9501   90.7411   10.4450 C.ar    1  UNL1        0.0013
     21 C          63.4575   90.4457   11.8253 C.ar    1  UNL1        0.0153
     22 C          64.4585   91.3595   12.4680 C.ar    1  UNL1        0.0576
     23 N          62.4629   82.4738   14.8553 N.3     1  UNL1       -0.2688
     24 C          63.8305   82.4575   15.4713 C.3     1  UNL1        0.0756
     25 C          64.3226   83.6501   16.2366 C.3     1  UNL1        0.0590
     26 C          63.4471   84.8589   16.3859 C.3     1  UNL1        0.2042
     27 F          64.6564   85.3178   17.1453 F       1  UNL1       -0.2306
     28 C          62.0795   84.8752   15.7698 C.3     1  UNL1        0.0590
     29 C          61.5875   83.6826   15.0046 C.3     1  UNL1        0.0756
     30 C          61.9708   81.2813   14.0900 C.3     1  UNL1        0.0993
     31 N          62.7628   78.0644   10.0869 N.pl3   1  UNL1       -0.3426
     32 C          62.8332   79.4396   10.6820 C.ar    1  UNL1        0.1251
     33 C          62.3668   79.6729   12.0885 C.ar    1  UNL1        0.0310
     34 C          62.4372   81.0480   12.6836 C.ar    1  UNL1       -0.0018
     35 C          62.9739   82.1897   11.8723 C.ar    1  UNL1        0.0179
     36 C          63.4402   81.9564   10.4658 C.ar    1  UNL1        0.1000
     37 N          63.3698   80.5813    9.8707 N.ar    1  UNL1       -0.2296
     38 H          62.4105   77.3151   10.6194 H       1  UNL1        0.1437
     39 H          63.0689   77.9113    9.1638 H       1  UNL1        0.1437
@<TRIPOS>BOND
     1    31    32    1
     2    32    33   ar
     3    33    34   ar
     4    34    30    1
     5    30    23    1
     6    23    24    1
     7    24    25    1
     8    25    26    1
     9    26    27    1
    10    26     1    1
    11     1     2    2
    12     1     3   am
    13     3     4    1
    14     4     5    1
    15     5     6    1
    16     6     9    1
    17     9    10    1
    18    10    11   ar
    19    11    12   ar
    20    12    13   ar
    21    13    14   ar
    22    14    15   ar
    23    15    16    1
    24    16    17    1
    25    17    18   ar
    26    18    19   ar
    27    19    20   ar
    28    20    21   ar
    29    21    22   ar
    30     6     7    1
    31     7     8    1
    32    26    28    1
    33    28    29    1
    34    34    35   ar
    35    35    36   ar
    36    36    37   ar
    37    37    32   ar
    38    29    23    1
    39     8     3    1
    40    22     9    1
    41    15    10   ar
    42    22    17   ar
    43    31    38    1
    44    31    39    1
@<TRIPOS>MOLECULE
*****
 39 44 0 0 0
SMALL
GASTEIGER

@<TRIPOS>ATOM
      1 C          60.1096   93.7466    2.9357 C.2     1  UNL1        0.2553
      2 O          59.9920   95.0301    3.7031 O.2     1  UNL1       -0.2720
      3 N          59.8826   93.7358    1.4530 N.am    1  UNL1       -0.2773
      4 C          59.5379   95.0085    0.7377 C.3     1  UNL1        0.0952
      5 C          59.3109   94.9976   -0.7449 C.3     1  UNL1        0.0416
      6 C          59.4285   93.7141   -1.5124 C.3     1  UNL1        0.0806
      7 C          59.7731   92.4415   -0.7971 C.3     1  UNL1        0.0416
      8 C          60.0001   92.4523    0.6856 C.3     1  UNL1        0.0952
      9 N          59.2015   93.7033   -2.9950 N.pl3   1  UNL1       -0.2876
     10 C          58.0604   92.9200   -3.5734 C.ar    1  UNL1        0.0576
     11 C          57.1463   92.1476   -2.6690 C.ar    1  UNL1        0.0153
     12 C          56.0053   91.3644   -3.2474 C.ar    1  UNL1        0.0013
     13 C          55.7783   91.3536   -4.7300 C.ar    1  UNL1        0.0006
     14 C          56.6923   92.1260   -5.6344 C.ar    1  UNL1        0.0077
     15 C          57.8334   92.9092   -5.0560 C.ar    1  UNL1        0.0431
     16 S          58.7475   93.6817   -5.9604 S.3     1  UNL1       -0.0844
     17 C          59.8885   94.4649   -5.3821 C.ar    1  UNL1        0.0431
     18 C          60.8026   95.2374   -6.2864 C.ar    1  UNL1        0.0077
     19 C          61.9436   96.0206   -5.7081 C.ar    1  UNL1        0.0006
     20 C          62.1707   96.0314   -4.2254 C.ar    1  UNL1        0.0013
     21 C          61.2566   95.2590   -3.3211 C.ar    1  UNL1        0.0153
     22 C          60.1155   94.4757   -3.8994 C.ar    1  UNL1        0.0576
     23 N          59.2135   90.4761    5.5136 N.3     1  UNL1       -0.2688
     24 C          60.6283   90.2919    5.0504 C.3     1  UNL1        0.0756
     25 C          61.2486   91.2909    4.1191 C.3     1  UNL1        0.0590
     26 C          60.4542   92.4740    3.6510 C.3     1  UNL1        0.2042
     27 F          61.7492   92.7317    2.9394 F       1  UNL1       -0.2306
     28 C          59.0394   92.6582    4.1141 C.3     1  UNL1        0.0590
     29 C          58.4191   91.6592    5.0454 C.3     1  UNL1        0.0756
     30 C          58.5932   89.4772    6.4449 C.3     1  UNL1        0.0993
     31 N          61.8835   89.4382   10.4664 N.pl3   1  UNL1       -0.3426
     32 C          61.0980   88.6998    9.4234 C.ar    1  UNL1        0.1251
     33 C          60.2383   89.4577    8.4557 C.ar    1  UNL1        0.0310
     34 C          59.4528   88.7193    7.4126 C.ar    1  UNL1       -0.0018
     35 C          59.5271   87.2231    7.3373 C.ar    1  UNL1        0.0179
     36 C          60.3868   86.4652    8.3051 C.ar    1  UNL1        0.1000
     37 N          61.1722   87.2036    9.3481 N.ar    1  UNL1       -0.2296
     38 H          61.8347   90.4203   10.5158 H       1  UNL1        0.1437
     39 H          62.4477   88.9408   11.1016 H       1  UNL1        0.1437
@<TRIPOS>BOND
     1    31    32    1
     2    32    33   ar
     3    33    34   ar
     4    34    30    1
     5    30    23    1
     6    23    24    1
     7    24    25    1
     8    25    26    1
     9    26    27    1
    10    26     1    1
    11     1     2    2
    12     1     3   am
    13     3     4    1
    14     4     5    1
    15     5     6    1
    16     6     9    1
    17     9    10    1
    18    10    11   ar
    19    11    12   ar
    20    12    13   ar
    21    13    14   ar
    22    14    15   ar
    23    15    16    1
    24    16    17    1
    25    17    18   ar
    26    18    19   ar
    27    19    20   ar
    28    20    21   ar
    29    21    22   ar
    30     6     7    1
    31     7     8    1
    32    26    28    1
    33    28    29    1
    34    34    35   ar
    35    35    36   ar
    36    36    37   ar
    37    37    32   ar
    38    29    23    1
    39     8     3    1
    40    22     9    1
    41    15    10   ar
    42    22    17   ar
    43    31    38    1
    44    31    39    1
@<TRIPOS>MOLECULE
*****
 39 44 0 0 0
SMALL
GASTEIGER

@<TRIPOS>ATOM
      1 C          60.0731   93.7216    3.1110 C.2     1  UNL1        0.2553
      2 O          59.7458   94.9334    3.9323 O.2     1  UNL1       -0.2720
      3 N          60.0682   93.8069    1.6134 N.am    1  UNL1       -0.2773
      4 C          59.7359   95.1040    0.9372 C.3     1  UNL1        0.0952
      5 C          59.7309   95.1893   -0.5604 C.3     1  UNL1        0.0416
      6 C          60.0583   93.9775   -1.3817 C.3     1  UNL1        0.0806
      7 C          60.3906   92.6805   -0.7055 C.3     1  UNL1        0.0416
      8 C          60.3955   92.5952    0.7921 C.3     1  UNL1        0.0952
      9 N          60.0533   94.0628   -2.8793 N.pl3   1  UNL1       -0.2876
     10 C          61.3310   94.3261   -3.6197 C.ar    1  UNL1        0.0576
     11 C          62.6136   94.5040   -2.8626 C.ar    1  UNL1        0.0153
     12 C          63.8912   94.7673   -3.6031 C.ar    1  UNL1        0.0013
     13 C          63.8863   94.8526   -5.1006 C.ar    1  UNL1        0.0006
     14 C          62.6037   94.6746   -5.8577 C.ar    1  UNL1        0.0077
     15 C          61.3261   94.4114   -5.1173 C.ar    1  UNL1        0.0431
     16 S          60.0434   94.2335   -5.8744 S.3     1  UNL1       -0.0844
     17 C          58.7658   93.9702   -5.1339 C.ar    1  UNL1        0.0431
     18 C          57.4831   93.7923   -5.8910 C.ar    1  UNL1        0.0077
     19 C          56.2054   93.5291   -5.1506 C.ar    1  UNL1        0.0006
     20 C          56.2104   93.4437   -3.6530 C.ar    1  UNL1        0.0013
     21 C          57.4930   93.6217   -2.8959 C.ar    1  UNL1        0.0153
     22 C          58.7707   93.8849   -3.6364 C.ar    1  UNL1        0.0576
     23 N          59.1547   90.3970    5.6105 N.3     1  UNL1       -0.2688
     24 C          60.5606   90.2027    5.1249 C.3     1  UNL1        0.0756
     25 C          61.1859   91.2166    4.2133 C.3     1  UNL1        0.0590
     26 C          60.4054   92.4246    3.7872 C.3     1  UNL1        0.2042
     27 F          61.6958   92.6809    3.0668 F       1  UNL1       -0.2306
     28 C          58.9995   92.6188    4.2729 C.3     1  UNL1        0.0590
     29 C          58.3742   91.6050    5.1845 C.3     1  UNL1        0.0756
     30 C          58.5293   89.3832    6.5222 C.3     1  UNL1        0.0993
     31 N          61.8656   89.2872   10.5046 N.pl3   1  UNL1       -0.3426
     32 C          61.0518   88.5623    9.4740 C.ar    1  UNL1        0.1251
     33 C          60.1975   89.3352    8.5134 C.ar    1  UNL1        0.0310
     34 C          59.3836   88.6103    7.4827 C.ar    1  UNL1       -0.0018
     35 C          59.4242   87.1125    7.4127 C.ar    1  UNL1        0.0179
     36 C          60.2785   86.3395    8.3733 C.ar    1  UNL1        0.1000
     37 N          61.0923   87.0645    9.4039 N.ar    1  UNL1       -0.2296
     38 H          61.8390   90.2703   10.5506 H       1  UNL1        0.1437
     39 H          62.4263   88.7800   11.1351 H       1  UNL1        0.1437
@<TRIPOS>BOND
     1    31    32    1
     2    32    33   ar
     3    33    34   ar
     4    34    30    1
     5    30    23    1
     6    23    24    1
     7    24    25    1
     8    25    26    1
     9    26    27    1
    10    26     1    1
    11     1     2    2
    12     1     3   am
    13     3     4    1
    14     4     5    1
    15     5     6    1
    16     6     9    1
    17     9    10    1
    18    10    11   ar
    19    11    12   ar
    20    12    13   ar
    21    13    14   ar
    22    14    15   ar
    23    15    16    1
    24    16    17    1
    25    17    18   ar
    26    18    19   ar
    27    19    20   ar
    28    20    21   ar
    29    21    22   ar
    30     6     7    1
    31     7     8    1
    32    26    28    1
    33    28    29    1
    34    34    35   ar
    35    35    36   ar
    36    36    37   ar
    37    37    32   ar
    38    29    23    1
    39     8     3    1
    40    22     9    1
    41    15    10   ar
    42    22    17   ar
    43    31    38    1
    44    31    39    1
@<TRIPOS>MOLECULE
*****
 39 44 0 0 0
SMALL
GASTEIGER

@<TRIPOS>ATOM
      1 C          62.3366   95.5451   -0.0353 C.2     1  UNL1        0.2553
      2 O          63.0374   96.8560    0.1661 O.2     1  UNL1       -0.2720
      3 N          61.0827   95.4834   -0.8562 N.am    1  UNL1       -0.2773
      4 C          60.5297   96.7325   -1.4759 C.3     1  UNL1        0.0952
      5 C          59.2758   96.6708   -2.2969 C.3     1  UNL1        0.0416
      6 C          58.5750   95.3599   -2.4982 C.3     1  UNL1        0.0806
      7 C          59.1280   94.1108   -1.8786 C.3     1  UNL1        0.0416
      8 C          60.3818   94.1726   -1.0576 C.3     1  UNL1        0.0952
      9 N          57.3211   95.2982   -3.3192 N.pl3   1  UNL1       -0.2876
     10 C          56.0145   95.7366   -2.7270 C.ar    1  UNL1        0.0576
     11 C          55.9618   96.2368   -1.3138 C.ar    1  UNL1        0.0153
     12 C          54.6553   96.6752   -0.7217 C.ar    1  UNL1        0.0013
     13 C          53.4014   96.6135   -1.5426 C.ar    1  UNL1        0.0006
     14 C          53.4541   96.1133   -2.9558 C.ar    1  UNL1        0.0077
     15 C          54.7606   95.6749   -3.5479 C.ar    1  UNL1        0.0431
     16 S          54.8134   95.1747   -4.9612 S.3     1  UNL1       -0.0844
     17 C          56.1199   94.7363   -5.5533 C.ar    1  UNL1        0.0431
     18 C          56.1726   94.2361   -6.9665 C.ar    1  UNL1        0.0077
     19 C          57.4792   93.7977   -7.5587 C.ar    1  UNL1        0.0006
     20 C          58.7330   93.8594   -6.7377 C.ar    1  UNL1        0.0013
     21 C          58.6804   94.3595   -5.3246 C.ar    1  UNL1        0.0153
     22 C          57.3738   94.7980   -4.7323 C.ar    1  UNL1        0.0576
     23 N          62.3158   92.3996    2.8370 N.3     1  UNL1       -0.2688
     24 C          63.5005   92.1694    1.9462 C.3     1  UNL1        0.0756
     25 C          63.7873   93.1177    0.8199 C.3     1  UNL1        0.0590
     26 C          62.8896   94.2960    0.5844 C.3     1  UNL1        0.2042
     27 F          63.8822   94.4997   -0.5216 F       1  UNL1       -0.2306
     28 C          61.7049   94.5262    1.4752 C.3     1  UNL1        0.0590
     29 C          61.4180   93.5779    2.6015 C.3     1  UNL1        0.0756
     30 C          62.0288   91.4514    3.9633 C.3     1  UNL1        0.0993
     31 N          58.5656   88.9309    6.9049 N.pl3   1  UNL1       -0.3426
     32 C          58.8952   90.0345    5.9439 C.ar    1  UNL1        0.1251
     33 C          60.2972   90.1912    5.4341 C.ar    1  UNL1        0.0310
     34 C          60.6269   91.2947    4.4731 C.ar    1  UNL1       -0.0018
     35 C          59.5546   92.2416    4.0219 C.ar    1  UNL1        0.0179
     36 C          58.1525   92.0849    4.5317 C.ar    1  UNL1        0.1000
     37 N          57.8230   90.9813    5.4927 N.ar    1  UNL1       -0.2296
     38 H          59.2694   88.3094    7.2010 H       1  UNL1        0.1437
     39 H          57.6454   88.8280    7.2395 H       1  UNL1        0.1437
@<TRIPOS>BOND
     1    31    32    1
     2    32    33   ar
     3    33    34   ar
     4    34    30    1
     5    30    23    1
     6    23    24    1
     7    24    25    1
     8    25    26    1
     9    26    27    1
    10    26     1    1
    11     1     2    2
    12     1     3   am
    13     3     4    1
    14     4     5    1
    15     5     6    1
    16     6     9    1
    17     9    10    1
    18    10    11   ar
    19    11    12   ar
    20    12    13   ar
    21    13    14   ar
    22    14    15   ar
    23    15    16    1
    24    16    17    1
    25    17    18   ar
    26    18    19   ar
    27    19    20   ar
    28    20    21   ar
    29    21    22   ar
    30     6     7    1
    31     7     8    1
    32    26    28    1
    33    28    29    1
    34    34    35   ar
    35    35    36   ar
    36    36    37   ar
    37    37    32   ar
    38    29    23    1
    39     8     3    1
    40    22     9    1
    41    15    10   ar
    42    22    17   ar
    43    31    38    1
    44    31    39    1
@<TRIPOS>MOLECULE
*****
 39 44 0 0 0
SMALL
GASTEIGER

@<TRIPOS>ATOM
      1 C          62.1711   95.3541   -0.2207 C.2     1  UNL1        0.2553
      2 O          62.9493   96.6289   -0.0812 O.2     1  UNL1       -0.2720
      3 N          60.8918   95.3383   -1.0037 N.am    1  UNL1       -0.2773
      4 C          60.3906   96.5973   -1.6470 C.3     1  UNL1        0.0952
      5 C          59.1112   96.5816   -2.4299 C.3     1  UNL1        0.0416
      6 C          58.3330   95.3068   -2.5695 C.3     1  UNL1        0.0806
      7 C          58.8342   94.0479   -1.9262 C.3     1  UNL1        0.0416
      8 C          60.1135   94.0636   -1.1433 C.3     1  UNL1        0.0952
      9 N          57.0536   95.2910   -3.3524 N.pl3   1  UNL1       -0.2876
     10 C          57.0393   94.7596   -4.7551 C.ar    1  UNL1        0.0576
     11 C          58.3042   94.2441   -5.3749 C.ar    1  UNL1        0.0153
     12 C          58.2898   93.7127   -6.7775 C.ar    1  UNL1        0.0013
     13 C          57.0104   93.6970   -7.5604 C.ar    1  UNL1        0.0006
     14 C          55.7455   94.2125   -6.9407 C.ar    1  UNL1        0.0077
     15 C          55.7599   94.7439   -5.5381 C.ar    1  UNL1        0.0431
     16 S          54.4949   95.2595   -4.9183 S.3     1  UNL1       -0.0844
     17 C          54.5093   95.7908   -3.5156 C.ar    1  UNL1        0.0431
     18 C          53.2444   96.3064   -2.8959 C.ar    1  UNL1        0.0077
     19 C          53.2588   96.8377   -1.4932 C.ar    1  UNL1        0.0006
     20 C          54.5382   96.8535   -0.7103 C.ar    1  UNL1        0.0013
     21 C          55.8031   96.3379   -1.3300 C.ar    1  UNL1        0.0153
     22 C          55.7887   95.8066   -2.7327 C.ar    1  UNL1        0.0576
     23 N          62.1870   92.4063    2.8541 N.3     1  UNL1       -0.2688
     24 C          63.2340   92.0038    1.8582 C.3     1  UNL1        0.0756
     25 C          63.4766   92.8483    0.6425 C.3     1  UNL1        0.0590
     26 C          62.6723   94.0952    0.4226 C.3     1  UNL1        0.2042
     27 F          63.5452   94.1300   -0.7967 F       1  UNL1       -0.2306
     28 C          61.6252   94.4976    1.4185 C.3     1  UNL1        0.0590
     29 C          61.3827   93.6531    2.6342 C.3     1  UNL1        0.0756
     30 C          61.9444   91.5619    4.0698 C.3     1  UNL1        0.0993
     31 N          58.5797   88.8595    6.9640 N.pl3   1  UNL1       -0.3426
     32 C          58.8609   89.9696    5.9952 C.ar    1  UNL1        0.1251
     33 C          60.2620   90.2107    5.5169 C.ar    1  UNL1        0.0310
     34 C          60.5432   91.3208    4.5481 C.ar    1  UNL1       -0.0018
     35 C          59.4234   92.1899    4.0576 C.ar    1  UNL1        0.0179
     36 C          58.0222   91.9488    4.5360 C.ar    1  UNL1        0.1000
     37 N          57.7411   90.8387    5.5047 N.ar    1  UNL1       -0.2296
     38 H          59.3147   88.2891    7.2859 H       1  UNL1        0.1437
     39 H          57.6601   88.7012    7.2779 H       1  UNL1        0.1437
@<TRIPOS>BOND
     1    31    32    1
     2    32    33   ar
     3    33    34   ar
     4    34    30    1
     5    30    23    1
     6    23    24    1
     7    24    25    1
     8    25    26    1
     9    26    27    1
    10    26     1    1
    11     1     2    2
    12     1     3   am
    13     3     4    1
    14     4     5    1
    15     5     6    1
    16     6     9    1
    17     9    10    1
    18    10    11   ar
    19    11    12   ar
    20    12    13   ar
    21    13    14   ar
    22    14    15   ar
    23    15    16    1
    24    16    17    1
    25    17    18   ar
    26    18    19   ar
    27    19    20   ar
    28    20    21   ar
    29    21    22   ar
    30     6     7    1
    31     7     8    1
    32    26    28    1
    33    28    29    1
    34    34    35   ar
    35    35    36   ar
    36    36    37   ar
    37    37    32   ar
    38    29    23    1
    39     8     3    1
    40    22     9    1
    41    15    10   ar
    42    22    17   ar
    43    31    38    1
    44    31    39    1
@<TRIPOS>MOLECULE
*****
 39 44 0 0 0
SMALL
GASTEIGER

@<TRIPOS>ATOM
      1 C          59.6974   87.7568    7.0615 C.2     1  UNL1        0.2553
      2 O          59.6329   86.5244    6.2087 O.2     1  UNL1       -0.2720
      3 N          60.4978   87.7499    8.3300 N.am    1  UNL1       -0.2773
      4 C          61.2338   86.5107    8.7458 C.3     1  UNL1        0.0952
      5 C          62.0343   86.5038   10.0143 C.3     1  UNL1        0.0416
      6 C          62.0988   87.7362   10.8671 C.3     1  UNL1        0.0806
      7 C          61.3628   88.9753   10.4514 C.3     1  UNL1        0.0416
      8 C          60.5624   88.9822    9.1828 C.3     1  UNL1        0.0952
      9 N          62.8992   87.7293   12.1357 N.pl3   1  UNL1       -0.2876
     10 C          63.4902   89.0059   12.6565 C.ar    1  UNL1        0.0576
     11 C          63.2808   90.2892   11.9088 C.ar    1  UNL1        0.0153
     12 C          63.8718   91.5657   12.4296 C.ar    1  UNL1        0.0013
     13 C          64.6723   91.5588   13.6981 C.ar    1  UNL1        0.0006
     14 C          64.8817   90.2755   14.4459 C.ar    1  UNL1        0.0077
     15 C          64.2907   88.9990   13.9251 C.ar    1  UNL1        0.0431
     16 S          64.5001   87.7156   14.6728 S.3     1  UNL1       -0.0844
     17 C          63.9091   86.4391   14.1520 C.ar    1  UNL1        0.0431
     18 C          64.1185   85.1557   14.8998 C.ar    1  UNL1        0.0077
     19 C          63.5275   83.8792   14.3789 C.ar    1  UNL1        0.0006
     20 C          62.7270   83.8861   13.1104 C.ar    1  UNL1        0.0013
     21 C          62.5176   85.1694   12.3626 C.ar    1  UNL1        0.0153
     22 C          63.1086   86.4460   12.8834 C.ar    1  UNL1        0.0576
     23 N          59.3908   91.4947    5.0420 N.3     1  UNL1       -0.2688
     24 C          58.0703   91.2500    5.7104 C.3     1  UNL1        0.0756
     25 C          57.8557   90.0006    6.5122 C.3     1  UNL1        0.0590
     26 C          58.9615   88.9959    6.6457 C.3     1  UNL1        0.2042
     27 F          57.8967   88.3209    7.4584 F       1  UNL1       -0.2306
     28 C          60.2819   89.2406    5.9774 C.3     1  UNL1        0.0590
     29 C          60.4965   90.4900    5.1756 C.3     1  UNL1        0.0756
     30 C          59.6054   92.7441    4.2402 C.3     1  UNL1        0.0993
     31 N          64.2369   92.3340    1.9205 N.pl3   1  UNL1       -0.3426
     32 C          62.7483   92.4948    1.8298 C.ar    1  UNL1        0.1251
     33 C          61.9212   92.5391    3.0804 C.ar    1  UNL1        0.0310
     34 C          60.4325   92.6998    2.9897 C.ar    1  UNL1       -0.0018
     35 C          59.7711   92.8164    1.6485 C.ar    1  UNL1        0.0179
     36 C          60.5983   92.7721    0.3979 C.ar    1  UNL1        0.1000
     37 N          62.0869   92.6114    0.4886 N.ar    1  UNL1       -0.2296
     38 H          64.6711   92.2576    2.8008 H       1  UNL1        0.1437
     39 H          64.7798   92.3050    1.0998 H       1  UNL1        0.1437
@<TRIPOS>BOND
     1    31    32    1
     2    32    33   ar
     3    33    34   ar
     4    34    30    1
     5    30    23    1
     6    23    24    1
     7    24    25    1
     8    25    26    1
     9    26    27    1
    10    26     1    1
    11     1     2    2
    12     1     3   am
    13     3     4    1
    14     4     5    1
    15     5     6    1
    16     6     9    1
    17     9    10    1
    18    10    11   ar
    19    11    12   ar
    20    12    13   ar
    21    13    14   ar
    22    14    15   ar
    23    15    16    1
    24    16    17    1
    25    17    18   ar
    26    18    19   ar
    27    19    20   ar
    28    20    21   ar
    29    21    22   ar
    30     6     7    1
    31     7     8    1
    32    26    28    1
    33    28    29    1
    34    34    35   ar
    35    35    36   ar
    36    36    37   ar
    37    37    32   ar
    38    29    23    1
    39     8     3    1
    40    22     9    1
    41    15    10   ar
    42    22    17   ar
    43    31    38    1
    44    31    39    1
@<TRIPOS>MOLECULE
*****
 39 44 0 0 0
SMALL
GASTEIGER

@<TRIPOS>ATOM
      1 C          59.7093   87.7555    7.0645 C.2     1  UNL1        0.2553
      2 O          59.6465   86.5262    6.2071 O.2     1  UNL1       -0.2720
      3 N          60.5087   87.7446    8.3336 N.am    1  UNL1       -0.2773
      4 C          61.2454   86.5045    8.7454 C.3     1  UNL1        0.0952
      5 C          62.0448   86.4937   10.0146 C.3     1  UNL1        0.0416
      6 C          62.1076   87.7229   10.8720 C.3     1  UNL1        0.0806
      7 C          61.3709   88.9630   10.4602 C.3     1  UNL1        0.0416
      8 C          60.5714   88.9738    9.1910 C.3     1  UNL1        0.0952
      9 N          62.9070   87.7121   12.1411 N.pl3   1  UNL1       -0.2876
     10 C          63.1091   86.4277   12.8893 C.ar    1  UNL1        0.0576
     11 C          62.5118   85.1543   12.3682 C.ar    1  UNL1        0.0153
     12 C          62.7139   83.8700   13.1163 C.ar    1  UNL1        0.0013
     13 C          63.5134   83.8591   14.3855 C.ar    1  UNL1        0.0006
     14 C          64.1107   85.1326   14.9065 C.ar    1  UNL1        0.0077
     15 C          63.9085   86.4169   14.1584 C.ar    1  UNL1        0.0431
     16 S          64.5058   87.6904   14.6795 S.3     1  UNL1       -0.0844
     17 C          64.3037   88.9747   13.9314 C.ar    1  UNL1        0.0431
     18 C          64.9010   90.2482   14.4524 C.ar    1  UNL1        0.0077
     19 C          64.6989   91.5325   13.7043 C.ar    1  UNL1        0.0006
     20 C          63.8995   91.5433   12.4352 C.ar    1  UNL1        0.0013
     21 C          63.3022   90.2699   11.9141 C.ar    1  UNL1        0.0153
     22 C          63.5043   88.9855   12.6622 C.ar    1  UNL1        0.0576
     23 N          59.3959   91.4934    5.0460 N.3     1  UNL1       -0.2688
     24 C          58.0790   91.2506    5.7220 C.3     1  UNL1        0.0756
     25 C          57.8674   90.0017    6.5253 C.3     1  UNL1        0.0590
     26 C          58.9726   88.9955    6.6527 C.3     1  UNL1        0.2042
     27 F          57.9116   88.3221    7.4717 F       1  UNL1       -0.2306
     28 C          60.2894   89.2383    5.9767 C.3     1  UNL1        0.0590
     29 C          60.5010   90.4873    5.1733 C.3     1  UNL1        0.0756
     30 C          59.6075   92.7423    4.2427 C.3     1  UNL1        0.0993
     31 N          64.2384   92.3263    1.9227 N.pl3   1  UNL1       -0.3426
     32 C          62.7501   92.4905    1.8321 C.ar    1  UNL1        0.1251
     33 C          61.9229   92.5343    3.0827 C.ar    1  UNL1        0.0310
     34 C          60.4347   92.6985    2.9921 C.ar    1  UNL1       -0.0018
     35 C          59.7736   92.8189    1.6511 C.ar    1  UNL1        0.0179
     36 C          60.6008   92.7751    0.4004 C.ar    1  UNL1        0.1000
     37 N          62.0890   92.6109    0.4911 N.ar    1  UNL1       -0.2296
     38 H          64.6722   92.2472    2.8029 H       1  UNL1        0.1437
     39 H          64.7813   92.2975    1.1019 H       1  UNL1        0.1437
@<TRIPOS>BOND
     1    31    32    1
     2    32    33   ar
     3    33    34   ar
     4    34    30    1
     5    30    23    1
     6    23    24    1
     7    24    25    1
     8    25    26    1
     9    26    27    1
    10    26     1    1
    11     1     2    2
    12     1     3   am
    13     3     4    1
    14     4     5    1
    15     5     6    1
    16     6     9    1
    17     9    10    1
    18    10    11   ar
    19    11    12   ar
    20    12    13   ar
    21    13    14   ar
    22    14    15   ar
    23    15    16    1
    24    16    17    1
    25    17    18   ar
    26    18    19   ar
    27    19    20   ar
    28    20    21   ar
    29    21    22   ar
    30     6     7    1
    31     7     8    1
    32    26    28    1
    33    28    29    1
    34    34    35   ar
    35    35    36   ar
    36    36    37   ar
    37    37    32   ar
    38    29    23    1
    39     8     3    1
    40    22     9    1
    41    15    10   ar
    42    22    17   ar
    43    31    38    1
    44    31    39    1
@<TRIPOS>MOLECULE
*****
 39 44 0 0 0
SMALL
GASTEIGER

@<TRIPOS>ATOM
      1 C          60.6299   87.8809    9.1733 C.2     1  UNL1        0.2553
      2 O          59.2223   88.2892    8.8535 O.2     1  UNL1       -0.2720
      3 N          61.4807   88.7481   10.0532 N.am    1  UNL1       -0.2773
      4 C          60.9240   90.0235   10.6132 C.3     1  UNL1        0.0952
      5 C          61.7749   90.8906   11.4930 C.3     1  UNL1        0.0416
      6 C          63.1825   90.4823   11.8128 C.3     1  UNL1        0.0806
      7 C          63.7391   89.2070   11.2528 C.3     1  UNL1        0.0416
      8 C          62.8882   88.3399   10.3730 C.3     1  UNL1        0.0952
      9 N          64.0333   91.3495   12.6927 N.pl3   1  UNL1       -0.2876
     10 C          64.9167   92.3978   12.0838 C.ar    1  UNL1        0.0576
     11 C          64.9493   92.5790   10.5952 C.ar    1  UNL1        0.0153
     12 C          65.8326   93.6272    9.9864 C.ar    1  UNL1        0.0013
     13 C          66.6835   94.4944   10.8662 C.ar    1  UNL1        0.0006
     14 C          66.6510   94.3132   12.3548 C.ar    1  UNL1        0.0077
     15 C          65.7676   93.2649   12.9636 C.ar    1  UNL1        0.0431
     16 S          65.7350   93.0838   14.4523 S.3     1  UNL1       -0.0844
     17 C          64.8517   92.0355   15.0611 C.ar    1  UNL1        0.0431
     18 C          64.8191   91.8543   16.5499 C.ar    1  UNL1        0.0077
     19 C          63.9357   90.8060   17.1587 C.ar    1  UNL1        0.0006
     20 C          63.0848   89.9389   16.2788 C.ar    1  UNL1        0.0013
     21 C          63.1174   90.1200   14.7902 C.ar    1  UNL1        0.0153
     22 C          64.0008   91.1683   14.1813 C.ar    1  UNL1        0.0576
     23 N          62.8104   84.2340    9.4727 N.3     1  UNL1       -0.2688
     24 C          62.3163   84.3324    8.0598 C.3     1  UNL1        0.0756
     25 C          61.5044   85.5183    7.6302 C.3     1  UNL1        0.0590
     26 C          61.1865   86.6056    8.6133 C.3     1  UNL1        0.2042
     27 F          60.4992   87.1470    7.3950 F       1  UNL1       -0.2306
     28 C          61.6805   86.5071   10.0263 C.3     1  UNL1        0.0590
     29 C          62.4925   85.3213   10.4559 C.3     1  UNL1        0.0756
     30 C          63.6223   83.0482    9.9024 C.3     1  UNL1        0.0993
     31 N          64.7257   83.7986   14.9244 N.pl3   1  UNL1       -0.3426
     32 C          64.1242   82.9569   13.8381 C.ar    1  UNL1        0.1251
     33 C          64.1740   83.4234   12.4134 C.ar    1  UNL1        0.0310
     34 C          63.5725   82.5817   11.3272 C.ar    1  UNL1       -0.0018
     35 C          62.9213   81.2736   11.6657 C.ar    1  UNL1        0.0179
     36 C          62.8716   80.8070   13.0905 C.ar    1  UNL1        0.1000
     37 N          63.4730   81.6487   14.1766 N.ar    1  UNL1       -0.2296
     38 H          65.1531   84.6572   14.7022 H       1  UNL1        0.1437
     39 H          64.6930   83.4924   15.8595 H       1  UNL1        0.1437
@<TRIPOS>BOND
     1    31    32    1
     2    32    33   ar
     3    33    34   ar
     4    34    30    1
     5    30    23    1
     6    23    24    1
     7    24    25    1
     8    25    26    1
     9    26    27    1
    10    26     1    1
    11     1     2    2
    12     1     3   am
    13     3     4    1
    14     4     5    1
    15     5     6    1
    16     6     9    1
    17     9    10    1
    18    10    11   ar
    19    11    12   ar
    20    12    13   ar
    21    13    14   ar
    22    14    15   ar
    23    15    16    1
    24    16    17    1
    25    17    18   ar
    26    18    19   ar
    27    19    20   ar
    28    20    21   ar
    29    21    22   ar
    30     6     7    1
    31     7     8    1
    32    26    28    1
    33    28    29    1
    34    34    35   ar
    35    35    36   ar
    36    36    37   ar
    37    37    32   ar
    38    29    23    1
    39     8     3    1
    40    22     9    1
    41    15    10   ar
    42    22    17   ar
    43    31    38    1
    44    31    39    1
