@<TRIPOS>MOLECULE
*****
 28 30 0 0 0
SMALL
GASTEIGER

@<TRIPOS>ATOM
      1 C          61.4246   90.6483   11.1299 C.3     1  UNL1        0.0262
      2 C          62.4802   89.9088   11.8974 C.3     1  UNL1        0.0945
      3 C          63.6984   90.6343   12.3868 C.ar    1  UNL1       -0.0031
      4 C          64.2317   90.3618   13.7621 C.ar    1  UNL1       -0.0003
      5 C          65.4499   91.0873   14.2515 C.ar    1  UNL1        0.0306
      6 C          66.1349   92.0854   13.3656 C.ar    1  UNL1        0.1533
      7 F          67.3531   92.8110   13.8551 F       1  UNL1       -0.2029
      8 C          65.6016   92.3579   11.9904 C.ar    1  UNL1        0.0755
      9 C          64.3834   91.6324   11.5010 C.ar    1  UNL1        0.0141
     10 N          66.2865   93.3560   11.1046 N.pl3   1  UNL1       -0.3010
     11 C          66.0586   94.8240   11.3123 C.3     1  UNL1        0.1231
     12 C          66.7436   95.8220   10.4264 C.3     1  UNL1        0.1636
     13 O          67.6564   95.3521    9.3329 O.3     1  UNL1       -0.3501
     14 C          67.8844   93.8842    9.1252 C.3     1  UNL1        0.1636
     15 C          67.1994   92.8861   10.0110 C.3     1  UNL1        0.1231
     16 N          62.3176   88.4438   12.1754 N.am    1  UNL1       -0.2987
     17 C          62.2136   87.4716   11.0379 C.2     1  UNL1        0.2462
     18 O          62.2723   87.9644    9.6223 O.2     1  UNL1       -0.2701
     19 H          62.2791   88.1204   13.1044 H       1  UNL1        0.1500
     20 C          62.0509   86.0065   11.3159 C.2     1  UNL1        0.0577
     21 C          62.9391   85.3301   12.3176 C.2     1  UNL1        0.0047
     22 C          62.7764   83.8650   12.5956 C.ar    1  UNL1        0.0003
     23 C          63.0240   82.8631   11.5071 C.ar    1  UNL1        0.0023
     24 C          62.8614   81.3981   11.7852 C.ar    1  UNL1        0.0296
     25 C          62.4511   80.9351   13.1516 C.ar    1  UNL1        0.1401
     26 F          62.2884   79.4700   13.4296 F       1  UNL1       -0.2042
     27 C          62.2034   81.9370   14.2401 C.ar    1  UNL1        0.0296
     28 C          62.3661   83.4020   13.9621 C.ar    1  UNL1        0.0023
@<TRIPOS>BOND
     1     2     1    1
     2     2    16    1
     3    16    17   am
     4    17    18    2
     5    17    20    1
     6    20    21    2
     7    21    22    1
     8    22    23   ar
     9    23    24   ar
    10    24    25   ar
    11    25    26    1
    12    25    27   ar
    13    27    28   ar
    14     2     3    1
    15     3     4   ar
    16     4     5   ar
    17     5     6   ar
    18     6     7    1
    19     6     8   ar
    20     8    10    1
    21    10    11    1
    22    11    12    1
    23    12    13    1
    24    13    14    1
    25    14    15    1
    26     8     9   ar
    27    28    22   ar
    28     9     3   ar
    29    15    10    1
    30    16    19    1
@<TRIPOS>MOLECULE
*****
 28 30 0 0 0
SMALL
GASTEIGER

@<TRIPOS>ATOM
      1 C          63.1755   89.2227   15.3845 C.3     1  UNL1        0.0262
      2 C          63.8764   89.6946   14.1451 C.3     1  UNL1        0.0945
      3 C          64.7491   90.9136   14.1951 C.ar    1  UNL1       -0.0031
      4 C          65.1848   91.4703   15.5182 C.ar    1  UNL1       -0.0003
      5 C          66.0575   92.6893   15.5681 C.ar    1  UNL1        0.0306
      6 C          66.4945   93.3516   14.2951 C.ar    1  UNL1        0.1533
      7 F          67.3672   94.5706   14.3451 F       1  UNL1       -0.2029
      8 C          66.0588   92.7949   12.9722 C.ar    1  UNL1        0.0755
      9 C          65.1861   91.5759   12.9222 C.ar    1  UNL1        0.0141
     10 N          66.4958   93.4571   11.6993 N.pl3   1  UNL1       -0.3010
     11 C          66.1855   94.9055   11.4625 C.3     1  UNL1        0.1231
     12 C          66.6225   95.5678   10.1895 C.3     1  UNL1        0.1636
     13 O          67.3698   94.7817    9.1533 O.3     1  UNL1       -0.3501
     14 C          67.6800   93.3333    9.3901 C.3     1  UNL1        0.1636
     15 C          67.2430   92.6711   10.6630 C.3     1  UNL1        0.1231
     16 N          63.7047   88.9476   12.8558 N.am    1  UNL1       -0.2987
     17 C          62.5780   89.2987   11.9300 C.2     1  UNL1        0.2462
     18 O          61.6230   90.3969   12.2935 O.2     1  UNL1       -0.2701
     19 H          64.3314   88.2268   12.6173 H       1  UNL1        0.1500
     20 C          62.4062   88.5516   10.6406 C.2     1  UNL1        0.0577
     21 C          61.9772   87.1144   10.6580 C.2     1  UNL1        0.0047
     22 C          61.8054   86.3673    9.3686 C.ar    1  UNL1        0.0003
     23 C          60.4989   86.4292    8.6342 C.ar    1  UNL1        0.0023
     24 C          60.3272   85.6822    7.3449 C.ar    1  UNL1        0.0296
     25 C          61.4619   84.8732    6.7900 C.ar    1  UNL1        0.1401
     26 F          61.2901   84.1261    5.5006 F       1  UNL1       -0.2042
     27 C          62.7684   84.8113    7.5243 C.ar    1  UNL1        0.0296
     28 C          62.9401   85.5584    8.8136 C.ar    1  UNL1        0.0023
@<TRIPOS>BOND
     1     2     1    1
     2     2    16    1
     3    16    17   am
     4    17    18    2
     5    17    20    1
     6    20    21    2
     7    21    22    1
     8    22    23   ar
     9    23    24   ar
    10    24    25   ar
    11    25    26    1
    12    25    27   ar
    13    27    28   ar
    14     2     3    1
    15     3     4   ar
    16     4     5   ar
    17     5     6   ar
    18     6     7    1
    19     6     8   ar
    20     8    10    1
    21    10    11    1
    22    11    12    1
    23    12    13    1
    24    13    14    1
    25    14    15    1
    26     8     9   ar
    27    28    22   ar
    28     9     3   ar
    29    15    10    1
    30    16    19    1
@<TRIPOS>MOLECULE
*****
 28 30 0 0 0
SMALL
GASTEIGER

@<TRIPOS>ATOM
      1 C          60.0988   88.5852   11.1924 C.3     1  UNL1        0.0262
      2 C          61.4301   88.4397   10.5167 C.3     1  UNL1        0.0945
      3 C          62.0346   87.0788   10.3358 C.ar    1  UNL1       -0.0031
      4 C          62.3838   86.5900    8.9613 C.ar    1  UNL1       -0.0003
      5 C          62.9883   85.2291    8.7804 C.ar    1  UNL1        0.0306
      6 C          63.2436   84.3571    9.9740 C.ar    1  UNL1        0.1533
      7 F          63.8480   82.9963    9.7931 F       1  UNL1       -0.2029
      8 C          62.8943   84.8460   11.3484 C.ar    1  UNL1        0.0755
      9 C          62.2899   86.2069   11.5293 C.ar    1  UNL1        0.0141
     10 N          63.1496   83.9741   12.5419 N.pl3   1  UNL1       -0.3010
     11 C          62.5558   82.5981   12.6062 C.3     1  UNL1        0.1231
     12 C          62.8112   81.7261   13.7998 C.3     1  UNL1        0.1636
     13 O          63.6602   82.2301   14.9289 O.3     1  UNL1       -0.3501
     14 C          64.2540   83.6061   14.8646 C.3     1  UNL1        0.1636
     15 C          63.9987   84.4780   13.6711 C.3     1  UNL1        0.1231
     16 N          62.1569   89.6549   10.0219 N.am    1  UNL1       -0.2987
     17 C          63.0359   90.4346   10.9544 C.2     1  UNL1        0.2462
     18 O          63.1881   89.9989   12.3816 O.2     1  UNL1       -0.2701
     19 H          62.0569   89.9409    9.0852 H       1  UNL1        0.1500
     20 C          63.7627   91.6499   10.4596 C.2     1  UNL1        0.0577
     21 C          65.1243   91.9795   10.9956 C.2     1  UNL1        0.0047
     22 C          65.8511   93.1949   10.5008 C.ar    1  UNL1        0.0003
     23 C          67.1052   93.0415    9.6924 C.ar    1  UNL1        0.0023
     24 C          67.8319   94.2568    9.1976 C.ar    1  UNL1        0.0296
     25 C          67.3046   95.6255    9.5114 C.ar    1  UNL1        0.1401
     26 F          68.0314   96.8409    9.0167 F       1  UNL1       -0.2042
     27 C          66.0505   95.7789   10.3199 C.ar    1  UNL1        0.0296
     28 C          65.3238   94.5636   10.8146 C.ar    1  UNL1        0.0023
@<TRIPOS>BOND
     1     2     1    1
     2     2    16    1
     3    16    17   am
     4    17    18    2
     5    17    20    1
     6    20    21    2
     7    21    22    1
     8    22    23   ar
     9    23    24   ar
    10    24    25   ar
    11    25    26    1
    12    25    27   ar
    13    27    28   ar
    14     2     3    1
    15     3     4   ar
    16     4     5   ar
    17     5     6   ar
    18     6     7    1
    19     6     8   ar
    20     8    10    1
    21    10    11    1
    22    11    12    1
    23    12    13    1
    24    13    14    1
    25    14    15    1
    26     8     9   ar
    27    28    22   ar
    28     9     3   ar
    29    15    10    1
    30    16    19    1
@<TRIPOS>MOLECULE
*****
 28 30 0 0 0
SMALL
GASTEIGER

@<TRIPOS>ATOM
      1 C          59.4625   90.4492   11.6416 C.3     1  UNL1        0.0262
      2 C          60.8107   89.8219   11.4442 C.3     1  UNL1        0.0945
      3 C          60.9606   88.6358   10.5383 C.ar    1  UNL1       -0.0031
      4 C          60.3554   88.6590    9.1659 C.ar    1  UNL1       -0.0003
      5 C          60.5053   87.4728    8.2601 C.ar    1  UNL1        0.0306
      6 C          61.2604   86.2635    8.7266 C.ar    1  UNL1        0.1533
      7 F          61.4103   85.0774    7.8207 F       1  UNL1       -0.2029
      8 C          61.8656   86.2404   10.0989 C.ar    1  UNL1        0.0755
      9 C          61.7156   87.4266   11.0047 C.ar    1  UNL1        0.0141
     10 N          62.6206   85.0312   10.5653 N.pl3   1  UNL1       -0.3010
     11 C          62.5205   84.5900   11.9955 C.3     1  UNL1        0.1231
     12 C          63.2756   83.3807   12.4619 C.3     1  UNL1        0.1636
     13 O          64.1307   82.6126   11.4981 O.3     1  UNL1       -0.3501
     14 C          64.2308   83.0538   10.0680 C.3     1  UNL1        0.1636
     15 C          63.4757   84.2630    9.6015 C.3     1  UNL1        0.1231
     16 N          62.0089   90.3808   12.1526 N.am    1  UNL1       -0.2987
     17 C          63.0904   91.0658   11.3709 C.2     1  UNL1        0.2462
     18 O          62.9737   91.1920    9.8808 O.2     1  UNL1       -0.2701
     19 H          62.0855   90.2980   13.1306 H       1  UNL1        0.1500
     20 C          64.2887   91.6247   12.0794 C.2     1  UNL1        0.0577
     21 C          64.6305   91.1528   13.4615 C.2     1  UNL1        0.0047
     22 C          65.8288   91.7117   14.1700 C.ar    1  UNL1        0.0003
     23 C          67.1524   91.7773   13.4674 C.ar    1  UNL1        0.0023
     24 C          68.3506   92.3361   14.1758 C.ar    1  UNL1        0.0296
     25 C          68.2252   92.8294   15.5868 C.ar    1  UNL1        0.1401
     26 F          69.4235   93.3883   16.2953 F       1  UNL1       -0.2042
     27 C          66.9016   92.7638   16.2894 C.ar    1  UNL1        0.0296
     28 C          65.7034   92.2050   15.5810 C.ar    1  UNL1        0.0023
@<TRIPOS>BOND
     1     2     1    1
     2     2    16    1
     3    16    17   am
     4    17    18    2
     5    17    20    1
     6    20    21    2
     7    21    22    1
     8    22    23   ar
     9    23    24   ar
    10    24    25   ar
    11    25    26    1
    12    25    27   ar
    13    27    28   ar
    14     2     3    1
    15     3     4   ar
    16     4     5   ar
    17     5     6   ar
    18     6     7    1
    19     6     8   ar
    20     8    10    1
    21    10    11    1
    22    11    12    1
    23    12    13    1
    24    13    14    1
    25    14    15    1
    26     8     9   ar
    27    28    22   ar
    28     9     3   ar
    29    15    10    1
    30    16    19    1
@<TRIPOS>MOLECULE
*****
 28 30 0 0 0
SMALL
GASTEIGER

@<TRIPOS>ATOM
      1 C          60.0435   88.9304   11.0880 C.3     1  UNL1        0.0262
      2 C          61.4639   88.5306   11.3576 C.3     1  UNL1        0.0945
      3 C          61.9855   87.2222   10.8418 C.ar    1  UNL1       -0.0031
      4 C          62.2364   87.0409    9.3741 C.ar    1  UNL1       -0.0003
      5 C          62.7580   85.7325    8.8583 C.ar    1  UNL1        0.0306
      6 C          63.0288   84.6054    9.8103 C.ar    1  UNL1        0.1533
      7 F          63.5504   83.2970    9.2946 F       1  UNL1       -0.2029
      8 C          62.7779   84.7866   11.2780 C.ar    1  UNL1        0.0755
      9 C          62.2563   86.0950   11.7938 C.ar    1  UNL1        0.0141
     10 N          63.0486   83.6595   12.2300 N.pl3   1  UNL1       -0.3010
     11 C          62.7068   82.2515   11.8418 C.3     1  UNL1        0.1231
     12 C          62.9775   81.1243   12.7939 C.3     1  UNL1        0.1636
     13 O          63.5901   81.4052   14.1339 O.3     1  UNL1       -0.3501
     14 C          63.9320   82.8132   14.5220 C.3     1  UNL1        0.1636
     15 C          63.6613   83.9404   13.5701 C.3     1  UNL1        0.1231
     16 N          62.3627   89.4391   12.1429 N.am    1  UNL1       -0.2987
     17 C          63.0925   90.5526   11.4519 C.2     1  UNL1        0.2462
     18 O          62.9237   90.7574    9.9756 O.2     1  UNL1       -0.2701
     19 H          62.4735   89.3047   13.1119 H       1  UNL1        0.1500
     20 C          63.9913   91.4612   12.2372 C.2     1  UNL1        0.0577
     21 C          65.0934   90.8846   13.0755 C.2     1  UNL1        0.0047
     22 C          65.9922   91.7932   13.8609 C.ar    1  UNL1        0.0003
     23 C          66.1193   93.2376   13.4768 C.ar    1  UNL1        0.0023
     24 C          67.0180   94.1462   14.2621 C.ar    1  UNL1        0.0296
     25 C          67.7897   93.6103   15.4315 C.ar    1  UNL1        0.1401
     26 F          68.6885   94.5189   16.2168 F       1  UNL1       -0.2042
     27 C          67.6627   92.1659   15.8155 C.ar    1  UNL1        0.0296
     28 C          66.7639   91.2574   15.0302 C.ar    1  UNL1        0.0023
@<TRIPOS>BOND
     1     2     1    1
     2     2    16    1
     3    16    17   am
     4    17    18    2
     5    17    20    1
     6    20    21    2
     7    21    22    1
     8    22    23   ar
     9    23    24   ar
    10    24    25   ar
    11    25    26    1
    12    25    27   ar
    13    27    28   ar
    14     2     3    1
    15     3     4   ar
    16     4     5   ar
    17     5     6   ar
    18     6     7    1
    19     6     8   ar
    20     8    10    1
    21    10    11    1
    22    11    12    1
    23    12    13    1
    24    13    14    1
    25    14    15    1
    26     8     9   ar
    27    28    22   ar
    28     9     3   ar
    29    15    10    1
    30    16    19    1
@<TRIPOS>MOLECULE
*****
 28 30 0 0 0
SMALL
GASTEIGER

@<TRIPOS>ATOM
      1 C          60.4290   90.5900   11.2818 C.3     1  UNL1        0.0262
      2 C          61.7669   89.9685   11.5536 C.3     1  UNL1        0.0945
      3 C          63.0081   90.8094   11.5056 C.ar    1  UNL1       -0.0031
      4 C          63.4113   91.4791   10.2253 C.ar    1  UNL1       -0.0003
      5 C          64.6525   92.3200   10.1773 C.ar    1  UNL1        0.0306
      6 C          65.4905   92.4912   11.4097 C.ar    1  UNL1        0.1533
      7 F          66.7317   93.3321   11.3617 F       1  UNL1       -0.2029
      8 C          65.0873   91.8216   12.6899 C.ar    1  UNL1        0.0755
      9 C          63.8461   90.9807   12.7379 C.ar    1  UNL1        0.0141
     10 N          65.9253   91.9929   13.9221 N.pl3   1  UNL1       -0.3010
     11 C          67.4142   91.8280   13.8454 C.3     1  UNL1        0.1231
     12 C          68.2522   91.9993   15.0777 C.3     1  UNL1        0.1636
     13 O          67.6013   92.3355   16.3866 O.3     1  UNL1       -0.3501
     14 C          66.1123   92.5003   16.4633 C.3     1  UNL1        0.1636
     15 C          65.2743   92.3291   15.2311 C.3     1  UNL1        0.1231
     16 N          61.8636   88.5063   11.8734 N.am    1  UNL1       -0.2987
     17 C          61.6867   87.4876   10.7866 C.2     1  UNL1        0.2462
     18 O          61.4132   87.9313    9.3801 O.2     1  UNL1       -0.2701
     19 H          62.0431   88.2150   12.7965 H       1  UNL1        0.1500
     20 C          61.7834   86.0253   11.1064 C.2     1  UNL1        0.0577
     21 C          62.6061   85.5654   12.2732 C.2     1  UNL1        0.0047
     22 C          62.7028   84.1031   12.5930 C.ar    1  UNL1        0.0003
     23 C          62.5980   83.6378   14.0151 C.ar    1  UNL1        0.0023
     24 C          62.6947   82.1754   14.3348 C.ar    1  UNL1        0.0296
     25 C          62.8961   81.1784   13.2323 C.ar    1  UNL1        0.1401
     26 F          62.9928   79.7160   13.5520 F       1  UNL1       -0.2042
     27 C          63.0009   81.6437   11.8102 C.ar    1  UNL1        0.0296
     28 C          62.9042   83.1060   11.4905 C.ar    1  UNL1        0.0023
@<TRIPOS>BOND
     1     2     1    1
     2     2    16    1
     3    16    17   am
     4    17    18    2
     5    17    20    1
     6    20    21    2
     7    21    22    1
     8    22    23   ar
     9    23    24   ar
    10    24    25   ar
    11    25    26    1
    12    25    27   ar
    13    27    28   ar
    14     2     3    1
    15     3     4   ar
    16     4     5   ar
    17     5     6   ar
    18     6     7    1
    19     6     8   ar
    20     8    10    1
    21    10    11    1
    22    11    12    1
    23    12    13    1
    24    13    14    1
    25    14    15    1
    26     8     9   ar
    27    28    22   ar
    28     9     3   ar
    29    15    10    1
    30    16    19    1
@<TRIPOS>MOLECULE
*****
 28 30 0 0 0
SMALL
GASTEIGER

@<TRIPOS>ATOM
      1 C          64.3585   85.5706   15.8691 C.3     1  UNL1        0.0262
      2 C          64.0259   86.6425   14.8738 C.3     1  UNL1        0.0945
      3 C          63.9542   88.0756   15.3108 C.ar    1  UNL1       -0.0031
      4 C          63.2155   88.4415   16.5640 C.ar    1  UNL1       -0.0003
      5 C          63.1438   89.8747   17.0010 C.ar    1  UNL1        0.0306
      6 C          63.8109   90.9419   16.1848 C.ar    1  UNL1        0.1533
      7 F          63.7393   92.3750   16.6218 F       1  UNL1       -0.2029
      8 C          64.5496   90.5759   14.9317 C.ar    1  UNL1        0.0755
      9 C          64.6213   89.1428   14.4947 C.ar    1  UNL1        0.0141
     10 N          65.2167   91.6431   14.1156 N.pl3   1  UNL1       -0.3010
     11 C          66.2073   92.5688   14.7573 C.3     1  UNL1        0.1231
     12 C          66.8744   93.6361   13.9411 C.3     1  UNL1        0.1636
     13 O          66.5508   93.7776   12.4833 O.3     1  UNL1       -0.3501
     14 C          65.5603   92.8519   11.8416 C.3     1  UNL1        0.1636
     15 C          64.8932   91.7847   12.6577 C.3     1  UNL1        0.1231
     16 N          63.7650   86.2812   13.4416 N.am    1  UNL1       -0.2987
     17 C          62.7547   85.2242   13.1068 C.2     1  UNL1        0.2462
     18 O          62.0053   84.5286   14.2043 O.2     1  UNL1       -0.2701
     19 H          64.2569   86.7377   12.7212 H       1  UNL1        0.1500
     20 C          62.4938   84.8629   11.6745 C.2     1  UNL1        0.0577
     21 C          62.3255   85.9428   10.6472 C.2     1  UNL1        0.0047
     22 C          62.0646   85.5815    9.2149 C.ar    1  UNL1        0.0003
     23 C          63.1338   84.9117    8.4036 C.ar    1  UNL1        0.0023
     24 C          62.8728   84.5503    6.9714 C.ar    1  UNL1        0.0296
     25 C          61.5427   84.8588    6.3505 C.ar    1  UNL1        0.1401
     26 F          61.2817   84.4975    4.9182 F       1  UNL1       -0.2042
     27 C          60.4735   85.5286    7.1618 C.ar    1  UNL1        0.0296
     28 C          60.7345   85.8899    8.5940 C.ar    1  UNL1        0.0023
@<TRIPOS>BOND
     1     2     1    1
     2     2    16    1
     3    16    17   am
     4    17    18    2
     5    17    20    1
     6    20    21    2
     7    21    22    1
     8    22    23   ar
     9    23    24   ar
    10    24    25   ar
    11    25    26    1
    12    25    27   ar
    13    27    28   ar
    14     2     3    1
    15     3     4   ar
    16     4     5   ar
    17     5     6   ar
    18     6     7    1
    19     6     8   ar
    20     8    10    1
    21    10    11    1
    22    11    12    1
    23    12    13    1
    24    13    14    1
    25    14    15    1
    26     8     9   ar
    27    28    22   ar
    28     9     3   ar
    29    15    10    1
    30    16    19    1
@<TRIPOS>MOLECULE
*****
 28 30 0 0 0
SMALL
GASTEIGER

@<TRIPOS>ATOM
      1 C          63.5552   86.3337   16.8671 C.3     1  UNL1        0.0262
      2 C          63.8759   86.4879   15.4098 C.3     1  UNL1        0.0945
      3 C          63.5030   85.4050   14.4412 C.ar    1  UNL1       -0.0031
      4 C          63.4835   83.9732   14.8880 C.ar    1  UNL1       -0.0003
      5 C          63.1106   82.8902   13.9194 C.ar    1  UNL1        0.0306
      6 C          62.7573   83.2392   12.5039 C.ar    1  UNL1        0.1533
      7 F          62.3844   82.1563   11.5353 F       1  UNL1       -0.2029
      8 C          62.7768   84.6709   12.0572 C.ar    1  UNL1        0.0755
      9 C          63.1497   85.7538   13.0258 C.ar    1  UNL1        0.0141
     10 N          62.4235   85.0198   10.6417 N.pl3   1  UNL1       -0.3010
     11 C          61.2544   85.9164   10.3597 C.3     1  UNL1        0.1231
     12 C          60.9011   86.2652    8.9442 C.3     1  UNL1        0.1636
     13 O          61.7168   85.7175    7.8108 O.3     1  UNL1       -0.3501
     14 C          62.8858   84.8209    8.0929 C.3     1  UNL1        0.1636
     15 C          63.2391   84.4720    9.5083 C.3     1  UNL1        0.1231
     16 N          64.5694   87.7249   14.9213 N.am    1  UNL1       -0.2987
     17 C          63.8881   89.0572   15.0252 C.2     1  UNL1        0.2462
     18 O          62.5134   89.1525   15.6177 O.2     1  UNL1       -0.2701
     19 H          65.4717   87.6624   14.5325 H       1  UNL1        0.1500
     20 C          64.5816   90.2944   14.5367 C.2     1  UNL1        0.0577
     21 C          64.3717   90.7652   13.1281 C.2     1  UNL1        0.0047
     22 C          65.0652   92.0023   12.6396 C.ar    1  UNL1        0.0003
     23 C          65.0096   92.3690   11.1862 C.ar    1  UNL1        0.0023
     24 C          65.7031   93.6061   10.6977 C.ar    1  UNL1        0.0296
     25 C          66.4522   94.4765   11.6626 C.ar    1  UNL1        0.1401
     26 F          67.1457   95.7137   11.1741 F       1  UNL1       -0.2042
     27 C          66.5078   94.1099   13.1160 C.ar    1  UNL1        0.0296
     28 C          65.8143   92.8728   13.6045 C.ar    1  UNL1        0.0023
@<TRIPOS>BOND
     1     2     1    1
     2     2    16    1
     3    16    17   am
     4    17    18    2
     5    17    20    1
     6    20    21    2
     7    21    22    1
     8    22    23   ar
     9    23    24   ar
    10    24    25   ar
    11    25    26    1
    12    25    27   ar
    13    27    28   ar
    14     2     3    1
    15     3     4   ar
    16     4     5   ar
    17     5     6   ar
    18     6     7    1
    19     6     8   ar
    20     8    10    1
    21    10    11    1
    22    11    12    1
    23    12    13    1
    24    13    14    1
    25    14    15    1
    26     8     9   ar
    27    28    22   ar
    28     9     3   ar
    29    15    10    1
    30    16    19    1
