@<TRIPOS>MOLECULE
*****
 30 33 0 0 0
SMALL
GASTEIGER

@<TRIPOS>ATOM
      1 C          61.3333   89.2088   11.1661 C.ar    1  UNL1        0.2490
      2 N          60.4639   90.1004   10.3300 N.ar    1  UNL1       -0.1863
      3 C          59.9308   89.6105    9.0163 C.ar    1  UNL1        0.2225
      4 N          60.2671   88.2289    8.5387 N.ar    1  UNL1       -0.1420
      5 N          61.1365   87.3373    9.3748 N.ar    1  UNL1       -0.2193
      6 C          61.6339   85.9377    9.1658 C.ar    1  UNL1        0.1371
      7 C          62.4744   85.5626   10.3502 C.ar    1  UNL1        0.1552
      8 C          62.4964   86.7305   11.2913 C.ar    1  UNL1        0.0359
      9 C          63.2186   86.7909   12.6046 C.3     1  UNL1        0.0360
     10 C          61.6696   87.8273   10.6885 C.ar    1  UNL1        0.1353
     11 O          61.8664   89.6988   12.4797 O.3     1  UNL1       -0.4328
     12 C          68.5375   92.8887   15.1148 C.3     1  UNL1        0.0521
     13 C          67.3256   92.4179   14.3668 C.2     1  UNL1        0.0591
     14 C          66.2529   91.5172   14.9037 C.2     1  UNL1        0.0182
     15 C          65.2378   91.3077   13.8194 C.2     1  UNL1        0.0455
     16 C          63.9656   90.5143   13.7752 C.2     1  UNL1        0.1752
     17 F          63.5204   89.7431   14.9822 F       1  UNL1       -0.2009
     18 C          63.1386   90.4922   12.5239 C.2     1  UNL1        0.1706
     19 C          63.5839   91.2634   11.3169 C.2     1  UNL1        0.0201
     20 C          64.8561   92.0568   11.3611 C.3     1  UNL1        0.0751
     21 C          65.6831   92.0790   12.6124 C.2     1  UNL1        0.0653
     22 N          66.9734   92.7651   12.9507 N.2     1  UNL1       -0.2536
     23 O          63.1705   84.2502   10.5572 O.3     1  UNL1       -0.4741
     24 C          62.8550   83.4158   11.7631 C.3     1  UNL1        0.2073
     25 C          63.9670   82.8590   12.6018 C.3     1  UNL1        0.0726
     26 C          63.7477   81.6119   13.4059 C.3     1  UNL1        0.1547
     27 S          62.3569   81.2024   13.7906 S.O2    1  UNL1       -0.0081
     28 C          60.9661   80.7929   14.1753 C.3     1  UNL1        0.1760
     29 O          62.3402   82.2591   14.8550 O.2     1  UNL1       -0.1729
     30 O          62.3736   80.1457   12.7262 O.2     1  UNL1       -0.1729
@<TRIPOS>BOND
     1    12    13    1
     2    13    14    2
     3    14    15    1
     4    15    16    2
     5    16    17    1
     6    16    18    1
     7    18    11    1
     8    11     1    1
     9     1     2   ar
    10     2     3   ar
    11     3     4   ar
    12     4     5   ar
    13     5     6   ar
    14     6     7   ar
    15     7    23    1
    16    23    24    1
    17    24    25    1
    18    25    26    1
    19    26    27    1
    20    27    28    1
    21    27    29    2
    22    27    30    2
    23     7     8   ar
    24     8     9    1
    25     8    10   ar
    26    18    19    2
    27    19    20    1
    28    20    21    1
    29    21    22    2
    30    22    13    1
    31    21    15    1
    32    10     1   ar
    33    10     5   ar
@<TRIPOS>MOLECULE
*****
 30 33 0 0 0
SMALL
GASTEIGER

@<TRIPOS>ATOM
      1 C          62.4984   86.8936   11.8937 C.ar    1  UNL1        0.2490
      2 N          61.6111   86.2809   10.8511 N.ar    1  UNL1       -0.1863
      3 C          60.9485   87.1511    9.8246 C.ar    1  UNL1        0.2225
      4 N          61.1734   88.6341    9.8407 N.ar    1  UNL1       -0.1420
      5 N          62.0607   89.2467   10.8834 N.ar    1  UNL1       -0.2193
      6 C          62.4667   90.6664   11.1476 C.ar    1  UNL1        0.1371
      7 C          63.3801   90.6736   12.3374 C.ar    1  UNL1        0.1552
      8 C          63.5387   89.2583   12.8085 C.ar    1  UNL1        0.0359
      9 C          64.3672   88.8045   13.9737 C.3     1  UNL1        0.0360
     10 C          62.7232   88.3765   11.9099 C.ar    1  UNL1        0.1353
     11 O          63.1610   86.0233   12.9202 O.3     1  UNL1       -0.4328
     12 C          62.8828   78.6042   10.3702 C.3     1  UNL1        0.0521
     13 C          62.8387   79.9112   11.1049 C.2     1  UNL1        0.0591
     14 C          63.2211   81.2499   10.5465 C.2     1  UNL1        0.0182
     15 C          63.0232   82.2751   11.6235 C.2     1  UNL1        0.0455
     16 C          63.2374   83.7595   11.6477 C.2     1  UNL1        0.1752
     17 F          63.7421   84.4645   10.4237 F       1  UNL1       -0.2009
     18 C          62.9468   84.5389   12.8960 C.2     1  UNL1        0.1706
     19 C          62.4420   83.8339   14.1200 C.2     1  UNL1        0.0201
     20 C          62.2278   82.3494   14.0957 C.3     1  UNL1        0.0751
     21 C          62.5184   81.5700   12.8475 C.2     1  UNL1        0.0653
     22 N          62.4044   80.1091   12.5269 N.2     1  UNL1       -0.2536
     23 O          64.0222   91.8835   12.9487 O.3     1  UNL1       -0.4741
     24 C          65.3766   92.3297   12.4833 C.3     1  UNL1        0.2073
     25 C          65.6005   92.6641   11.0383 C.3     1  UNL1        0.0726
     26 C          66.9892   92.9272   10.5359 C.3     1  UNL1        0.1547
     27 S          67.2864   94.1871    9.7779 S.O2    1  UNL1       -0.0081
     28 C          67.5835   95.4469    9.0199 C.3     1  UNL1        0.1760
     29 O          68.7207   93.7687    9.6449 O.2     1  UNL1       -0.1729
     30 O          65.8521   94.6054    9.9109 O.2     1  UNL1       -0.1729
@<TRIPOS>BOND
     1    12    13    1
     2    13    14    2
     3    14    15    1
     4    15    16    2
     5    16    17    1
     6    16    18    1
     7    18    11    1
     8    11     1    1
     9     1     2   ar
    10     2     3   ar
    11     3     4   ar
    12     4     5   ar
    13     5     6   ar
    14     6     7   ar
    15     7    23    1
    16    23    24    1
    17    24    25    1
    18    25    26    1
    19    26    27    1
    20    27    28    1
    21    27    29    2
    22    27    30    2
    23     7     8   ar
    24     8     9    1
    25     8    10   ar
    26    18    19    2
    27    19    20    1
    28    20    21    1
    29    21    22    2
    30    22    13    1
    31    21    15    1
    32    10     1   ar
    33    10     5   ar
@<TRIPOS>MOLECULE
*****
 30 33 0 0 0
SMALL
GASTEIGER

@<TRIPOS>ATOM
      1 C          62.5240   86.7980   11.8424 C.ar    1  UNL1        0.2490
      2 N          61.6690   86.1869   10.7721 N.ar    1  UNL1       -0.1863
      3 C          61.0118   87.0621    9.7464 C.ar    1  UNL1        0.2225
      4 N          61.2095   88.5483    9.7910 N.ar    1  UNL1       -0.1420
      5 N          62.0645   89.1593   10.8612 N.ar    1  UNL1       -0.2193
      6 C          62.4394   90.5814   11.1565 C.ar    1  UNL1        0.1371
      7 C          63.3284   90.5851   12.3646 C.ar    1  UNL1        0.1552
      8 C          63.5029   89.1654   12.8161 C.ar    1  UNL1        0.0359
      9 C          64.3158   88.7072   13.9905 C.3     1  UNL1        0.0360
     10 C          62.7217   88.2842   11.8870 C.ar    1  UNL1        0.1353
     11 O          63.1813   85.9228   12.8681 O.3     1  UNL1       -0.4328
     12 C          62.8918   78.4995   10.3316 C.3     1  UNL1        0.0521
     13 C          62.8448   79.8087   11.0622 C.2     1  UNL1        0.0591
     14 C          63.2467   81.1430   10.5073 C.2     1  UNL1        0.0182
     15 C          63.0379   82.1724   11.5782 C.2     1  UNL1        0.0455
     16 C          63.2627   83.6552   11.6026 C.2     1  UNL1        0.1752
     17 F          63.7936   84.3534   10.3858 F       1  UNL1       -0.2009
     18 C          62.9565   84.4400   12.8438 C.2     1  UNL1        0.1706
     19 C          62.4256   83.7418   14.0606 C.2     1  UNL1        0.0201
     20 C          62.2008   82.2589   14.0362 C.3     1  UNL1        0.0751
     21 C          62.5070   81.4742   12.7950 C.2     1  UNL1        0.0653
     22 N          62.3876   80.0134   12.4761 N.2     1  UNL1       -0.2536
     23 O          63.9362   91.7960   13.0083 O.3     1  UNL1       -0.4741
     24 C          65.1468   92.4404   12.4008 C.3     1  UNL1        0.2073
     25 C          66.4688   92.3673   13.1057 C.3     1  UNL1        0.0726
     26 C          66.7298   93.2339   14.3020 C.3     1  UNL1        0.1547
     27 S          67.7652   92.8297   15.3093 S.O2    1  UNL1       -0.0081
     28 C          68.8005   92.4255   16.3166 C.3     1  UNL1        0.1760
     29 O          66.7376   92.9130   16.3989 O.2     1  UNL1       -0.1729
     30 O          68.7927   92.7464   14.2197 O.2     1  UNL1       -0.1729
@<TRIPOS>BOND
     1    12    13    1
     2    13    14    2
     3    14    15    1
     4    15    16    2
     5    16    17    1
     6    16    18    1
     7    18    11    1
     8    11     1    1
     9     1     2   ar
    10     2     3   ar
    11     3     4   ar
    12     4     5   ar
    13     5     6   ar
    14     6     7   ar
    15     7    23    1
    16    23    24    1
    17    24    25    1
    18    25    26    1
    19    26    27    1
    20    27    28    1
    21    27    29    2
    22    27    30    2
    23     7     8   ar
    24     8     9    1
    25     8    10   ar
    26    18    19    2
    27    19    20    1
    28    20    21    1
    29    21    22    2
    30    22    13    1
    31    21    15    1
    32    10     1   ar
    33    10     5   ar
@<TRIPOS>MOLECULE
*****
 30 33 0 0 0
SMALL
GASTEIGER

@<TRIPOS>ATOM
      1 C          62.2918   88.2700   12.0432 C.ar    1  UNL1        0.2490
      2 N          63.2287   87.3036   12.7052 N.ar    1  UNL1       -0.1863
      3 C          63.2964   85.8815   12.2327 C.ar    1  UNL1        0.2225
      4 N          62.4274   85.4260   11.0982 N.ar    1  UNL1       -0.1420
      5 N          61.4905   86.3924   10.4362 N.ar    1  UNL1       -0.2193
      6 C          60.5199   86.2335    9.3037 C.ar    1  UNL1        0.1371
      7 C          59.8522   87.5573    9.0763 C.ar    1  UNL1        0.1552
      8 C          60.4102   88.5343   10.0682 C.ar    1  UNL1        0.0359
      9 C          60.0236   89.9779   10.1971 C.3     1  UNL1        0.0360
     10 C          61.4228   87.8144   10.9087 C.ar    1  UNL1        0.1353
     11 O          62.2241   89.6920   12.5157 O.3     1  UNL1       -0.4328
     12 C          68.8517   92.9151   15.2193 C.3     1  UNL1        0.0521
     13 C          67.6389   92.4546   14.4662 C.2     1  UNL1        0.0591
     14 C          66.6043   91.4903   14.9659 C.2     1  UNL1        0.0182
     15 C          65.5738   91.3172   13.8898 C.2     1  UNL1        0.0455
     16 C          64.3247   90.4897   13.8200 C.2     1  UNL1        0.1752
     17 F          63.9269   89.6324   14.9849 F       1  UNL1       -0.2009
     18 C          63.4732   90.5195   12.5854 C.2     1  UNL1        0.1706
     19 C          63.8710   91.3768   11.4206 C.2     1  UNL1        0.0201
     20 C          65.1202   92.2043   11.4904 C.3     1  UNL1        0.0751
     21 C          65.9715   92.1745   12.7250 C.2     1  UNL1        0.0653
     22 N          67.2479   92.8774   13.0812 N.2     1  UNL1       -0.2536
     23 O          58.8095   87.8522    8.0390 O.3     1  UNL1       -0.4741
     24 C          59.2178   88.3640    6.6895 C.3     1  UNL1        0.2073
     25 C          59.5388   89.8175    6.5042 C.3     1  UNL1        0.0726
     26 C          58.5925   90.7043    5.7504 C.3     1  UNL1        0.1547
     27 S          59.1210   91.6741    4.7354 S.O2    1  UNL1       -0.0081
     28 C          59.6495   92.6439    3.7204 C.3     1  UNL1        0.1760
     29 O          60.5085   91.1485    4.9556 O.2     1  UNL1       -0.1729
     30 O          57.7335   92.1998    4.5151 O.2     1  UNL1       -0.1729
@<TRIPOS>BOND
     1    12    13    1
     2    13    14    2
     3    14    15    1
     4    15    16    2
     5    16    17    1
     6    16    18    1
     7    18    11    1
     8    11     1    1
     9     1     2   ar
    10     2     3   ar
    11     3     4   ar
    12     4     5   ar
    13     5     6   ar
    14     6     7   ar
    15     7    23    1
    16    23    24    1
    17    24    25    1
    18    25    26    1
    19    26    27    1
    20    27    28    1
    21    27    29    2
    22    27    30    2
    23     7     8   ar
    24     8     9    1
    25     8    10   ar
    26    18    19    2
    27    19    20    1
    28    20    21    1
    29    21    22    2
    30    22    13    1
    31    21    15    1
    32    10     1   ar
    33    10     5   ar
@<TRIPOS>MOLECULE
*****
 30 33 0 0 0
SMALL
GASTEIGER

@<TRIPOS>ATOM
      1 C          63.2684   83.2834   12.5132 C.ar    1  UNL1        0.2490
      2 N          62.6911   81.9468   12.1523 N.ar    1  UNL1       -0.1863
      3 C          61.9992   81.1220   13.1968 C.ar    1  UNL1        0.2225
      4 N          61.8847   81.6337   14.6021 N.ar    1  UNL1       -0.1420
      5 N          62.4620   82.9702   14.9630 N.ar    1  UNL1       -0.2193
      6 C          62.5023   83.7303   16.2555 C.ar    1  UNL1        0.1371
      7 C          63.2191   85.0248   16.0100 C.ar    1  UNL1        0.1552
      8 C          63.6218   85.0649   14.5656 C.ar    1  UNL1        0.0359
      9 C          64.3624   86.1791   13.8873 C.3     1  UNL1        0.0360
     10 C          63.1539   83.7951   13.9185 C.ar    1  UNL1        0.1353
     11 O          63.9603   84.1082   11.4687 O.3     1  UNL1       -0.4328
     12 C          58.6780   88.2816    7.4310 C.3     1  UNL1        0.0521
     13 C          59.7698   87.3897    7.9433 C.2     1  UNL1        0.0591
     14 C          60.1477   87.1958    9.3819 C.2     1  UNL1        0.0182
     15 C          61.2869   86.2213    9.4347 C.2     1  UNL1        0.0455
     16 C          62.0693   85.6531   10.5814 C.2     1  UNL1        0.1752
     17 F          61.7432   86.0615   11.9874 F       1  UNL1       -0.2009
     18 C          63.1779   84.6764   10.3220 C.2     1  UNL1        0.1706
     19 C          63.5040   84.2680    8.9160 C.2     1  UNL1        0.0201
     20 C          62.7215   84.8363    7.7693 C.3     1  UNL1        0.0751
     21 C          61.6130   85.8129    8.0287 C.2     1  UNL1        0.0653
     22 N          60.6754   86.5350    7.1070 N.2     1  UNL1       -0.2536
     23 O          63.4864   86.0919   17.0297 O.3     1  UNL1       -0.4741
     24 C          62.5679   87.2729   17.1377 C.3     1  UNL1        0.2073
     25 C          63.1190   88.6639   17.0304 C.3     1  UNL1        0.0726
     26 C          63.1244   89.3683   15.7060 C.3     1  UNL1        0.1547
     27 S          64.0788   90.4995   15.4621 S.O2    1  UNL1       -0.0081
     28 C          65.0332   91.6307   15.2183 C.3     1  UNL1        0.1760
     29 O          63.5024   91.2384   16.6334 O.2     1  UNL1       -0.1729
     30 O          64.6553   89.7607   14.2909 O.2     1  UNL1       -0.1729
@<TRIPOS>BOND
     1    12    13    1
     2    13    14    2
     3    14    15    1
     4    15    16    2
     5    16    17    1
     6    16    18    1
     7    18    11    1
     8    11     1    1
     9     1     2   ar
    10     2     3   ar
    11     3     4   ar
    12     4     5   ar
    13     5     6   ar
    14     6     7   ar
    15     7    23    1
    16    23    24    1
    17    24    25    1
    18    25    26    1
    19    26    27    1
    20    27    28    1
    21    27    29    2
    22    27    30    2
    23     7     8   ar
    24     8     9    1
    25     8    10   ar
    26    18    19    2
    27    19    20    1
    28    20    21    1
    29    21    22    2
    30    22    13    1
    31    21    15    1
    32    10     1   ar
    33    10     5   ar
@<TRIPOS>MOLECULE
*****
 30 33 0 0 0
SMALL
GASTEIGER

@<TRIPOS>ATOM
      1 C          62.2391   87.6883   11.9191 C.ar    1  UNL1        0.2490
      2 N          63.1245   86.7459   12.6792 N.ar    1  UNL1       -0.1863
      3 C          63.3694   85.3611   12.1571 C.ar    1  UNL1        0.2225
      4 N          62.7288   84.9188   10.8750 N.ar    1  UNL1       -0.1420
      5 N          61.8434   85.8613   10.1148 N.ar    1  UNL1       -0.2193
      6 C          61.0811   85.7080    8.8321 C.ar    1  UNL1        0.1371
      7 C          60.3652   86.9980    8.5613 C.ar    1  UNL1        0.1552
      8 C          60.6849   87.9485    9.6768 C.ar    1  UNL1        0.0359
      9 C          60.1798   89.3547    9.8089 C.3     1  UNL1        0.0360
     10 C          61.5985   87.2460   10.6369 C.ar    1  UNL1        0.1353
     11 O          61.9942   89.0730   12.4412 O.3     1  UNL1       -0.4328
     12 C          67.1311   94.6997   10.5502 C.3     1  UNL1        0.0521
     13 C          66.2890   93.6204   11.1634 C.2     1  UNL1        0.0591
     14 C          65.1379   92.9192   10.5052 C.2     1  UNL1        0.0182
     15 C          64.5876   91.9183   11.4775 C.2     1  UNL1        0.0455
     16 C          63.4528   90.9423   11.3790 C.2     1  UNL1        0.1752
     17 F          62.6419   90.8596   10.1198 F       1  UNL1       -0.2009
     18 C          63.1289   90.0490   12.5397 C.2     1  UNL1        0.1706
     19 C          63.9399   90.1317   13.7988 C.2     1  UNL1        0.0201
     20 C          65.0747   91.1077   13.8973 C.3     1  UNL1        0.0751
     21 C          65.3985   92.0010   12.7367 C.2     1  UNL1        0.0653
     22 N          66.4500   93.0530   12.5425 N.2     1  UNL1       -0.2536
     23 O          59.4841   87.2867    7.3822 O.3     1  UNL1       -0.4741
     24 C          58.8398   88.6337    7.2394 C.3     1  UNL1        0.2073
     25 C          59.4337   89.6550    6.3152 C.3     1  UNL1        0.0726
     26 C          58.5456   90.6444    5.6205 C.3     1  UNL1        0.1547
     27 S          59.1414   91.6780    4.7114 S.O2    1  UNL1       -0.0081
     28 C          59.7373   92.7117    3.8022 C.3     1  UNL1        0.1760
     29 O          57.7831   92.2803    4.5059 O.2     1  UNL1       -0.1729
     30 O          60.4997   91.0758    4.9169 O.2     1  UNL1       -0.1729
@<TRIPOS>BOND
     1    12    13    1
     2    13    14    2
     3    14    15    1
     4    15    16    2
     5    16    17    1
     6    16    18    1
     7    18    11    1
     8    11     1    1
     9     1     2   ar
    10     2     3   ar
    11     3     4   ar
    12     4     5   ar
    13     5     6   ar
    14     6     7   ar
    15     7    23    1
    16    23    24    1
    17    24    25    1
    18    25    26    1
    19    26    27    1
    20    27    28    1
    21    27    29    2
    22    27    30    2
    23     7     8   ar
    24     8     9    1
    25     8    10   ar
    26    18    19    2
    27    19    20    1
    28    20    21    1
    29    21    22    2
    30    22    13    1
    31    21    15    1
    32    10     1   ar
    33    10     5   ar
@<TRIPOS>MOLECULE
*****
 30 33 0 0 0
SMALL
GASTEIGER

@<TRIPOS>ATOM
      1 C          61.6055   89.2592   11.6452 C.ar    1  UNL1        0.2490
      2 N          60.7792   90.3456   11.0232 N.ar    1  UNL1       -0.1863
      3 C          59.9362   90.0500    9.8183 C.ar    1  UNL1        0.2225
      4 N          59.9194   88.6681    9.2354 N.ar    1  UNL1       -0.1420
      5 N          60.7457   87.5817    9.8574 N.ar    1  UNL1       -0.2193
      6 C          60.9297   86.1349    9.5066 C.ar    1  UNL1        0.1371
      7 C          61.8865   85.5364   10.4946 C.ar    1  UNL1        0.1552
      8 C          62.2938   86.6132   11.4561 C.ar    1  UNL1        0.0359
      9 C          63.2401   86.4540   12.6091 C.3     1  UNL1        0.0360
     10 C          61.5888   87.8773   11.0623 C.ar    1  UNL1        0.1353
     11 O          62.4486   89.5548   12.8501 O.3     1  UNL1       -0.4328
     12 C          67.5166   94.7743    9.9013 C.3     1  UNL1        0.0521
     13 C          66.6801   93.8318   10.7148 C.2     1  UNL1        0.0591
     14 C          65.5648   92.9722   10.1978 C.2     1  UNL1        0.0182
     15 C          65.0074   92.1925   11.3516 C.2     1  UNL1        0.0455
     16 C          63.8976   91.1874   11.4411 C.2     1  UNL1        0.1752
     17 F          63.1269   90.8096   10.2109 F       1  UNL1       -0.2009
     18 C          63.5584   90.5599   12.7607 C.2     1  UNL1        0.1706
     19 C          64.3292   90.9377   13.9909 C.2     1  UNL1        0.0201
     20 C          65.4390   91.9429   13.9014 C.3     1  UNL1        0.0751
     21 C          65.7781   92.5702   12.5818 C.2     1  UNL1        0.0653
     22 N          66.8119   93.5834   12.1882 N.2     1  UNL1       -0.2536
     23 O          62.3539   84.1112   10.5172 O.3     1  UNL1       -0.4741
     24 C          63.7985   83.7917   10.2707 C.3     1  UNL1        0.2073
     25 C          64.5950   83.0665   11.3146 C.3     1  UNL1        0.0726
     26 C          63.9256   82.0620   12.2051 C.3     1  UNL1        0.1547
     27 S          63.2053   82.5166   13.4398 S.O2    1  UNL1       -0.0081
     28 C          62.4850   82.9712   14.6745 C.3     1  UNL1        0.1760
     29 O          64.3897   83.3537   13.8225 O.2     1  UNL1       -0.1729
     30 O          62.0209   81.6795   13.0571 O.2     1  UNL1       -0.1729
@<TRIPOS>BOND
     1    12    13    1
     2    13    14    2
     3    14    15    1
     4    15    16    2
     5    16    17    1
     6    16    18    1
     7    18    11    1
     8    11     1    1
     9     1     2   ar
    10     2     3   ar
    11     3     4   ar
    12     4     5   ar
    13     5     6   ar
    14     6     7   ar
    15     7    23    1
    16    23    24    1
    17    24    25    1
    18    25    26    1
    19    26    27    1
    20    27    28    1
    21    27    29    2
    22    27    30    2
    23     7     8   ar
    24     8     9    1
    25     8    10   ar
    26    18    19    2
    27    19    20    1
    28    20    21    1
    29    21    22    2
    30    22    13    1
    31    21    15    1
    32    10     1   ar
    33    10     5   ar
@<TRIPOS>MOLECULE
*****
 30 33 0 0 0
SMALL
GASTEIGER

@<TRIPOS>ATOM
      1 C          64.2298   91.5298   13.7621 C.ar    1  UNL1        0.2490
      2 N          65.5710   92.1836   13.9161 N.ar    1  UNL1       -0.1863
      3 C          66.3465   92.5995   12.7013 C.ar    1  UNL1        0.2225
      4 N          65.7808   92.3616   11.3326 N.ar    1  UNL1       -0.1420
      5 N          64.4396   91.7078   11.1787 N.ar    1  UNL1       -0.2193
      6 C          63.6322   91.3466    9.9672 C.ar    1  UNL1        0.1371
      7 C          62.3577   90.7076   10.4332 C.ar    1  UNL1        0.1552
      8 C          62.3774   90.6738   11.9327 C.ar    1  UNL1        0.0359
      9 C          61.2997   90.1192   12.8164 C.3     1  UNL1        0.0360
     10 C          63.6641   91.2919   12.3934 C.ar    1  UNL1        0.1353
     11 O          63.4543   91.1140   14.9769 O.3     1  UNL1       -0.4328
     12 C          64.5755   83.3444   14.9677 C.3     1  UNL1        0.0521
     13 C          64.2600   84.7862   15.2356 C.2     1  UNL1        0.0591
     14 C          64.4786   85.9276   14.2872 C.2     1  UNL1        0.0182
     15 C          64.0242   87.1865   14.9644 C.2     1  UNL1        0.0455
     16 C          64.0007   88.6167   14.5129 C.2     1  UNL1        0.1752
     17 F          64.5001   88.9800   13.1459 F       1  UNL1       -0.2009
     18 C          63.4778   89.6838   15.4284 C.2     1  UNL1        0.1706
     19 C          62.9784   89.3205   16.7954 C.2     1  UNL1        0.0201
     20 C          63.0019   87.8902   17.2468 C.3     1  UNL1        0.0751
     21 C          63.5248   86.8233   16.3313 C.2     1  UNL1        0.0653
     22 N          63.6706   85.3398   16.4990 N.2     1  UNL1       -0.2536
     23 O          61.2567   90.1927    9.5541 O.3     1  UNL1       -0.4741
     24 C          60.9399   88.7268    9.5296 C.3     1  UNL1        0.2073
     25 C          62.0438   87.7188    9.6538 C.3     1  UNL1        0.0726
     26 C          61.7340   86.2534    9.5715 C.3     1  UNL1        0.1547
     27 S          62.3009   85.3086   10.5894 S.O2    1  UNL1       -0.0081
     28 C          62.8677   84.3639   11.6073 C.3     1  UNL1        0.1760
     29 O          63.1655   84.6884    9.5322 O.2     1  UNL1       -0.1729
     30 O          61.4362   85.9289   11.6466 O.2     1  UNL1       -0.1729
@<TRIPOS>BOND
     1    12    13    1
     2    13    14    2
     3    14    15    1
     4    15    16    2
     5    16    17    1
     6    16    18    1
     7    18    11    1
     8    11     1    1
     9     1     2   ar
    10     2     3   ar
    11     3     4   ar
    12     4     5   ar
    13     5     6   ar
    14     6     7   ar
    15     7    23    1
    16    23    24    1
    17    24    25    1
    18    25    26    1
    19    26    27    1
    20    27    28    1
    21    27    29    2
    22    27    30    2
    23     7     8   ar
    24     8     9    1
    25     8    10   ar
    26    18    19    2
    27    19    20    1
    28    20    21    1
    29    21    22    2
    30    22    13    1
    31    21    15    1
    32    10     1   ar
    33    10     5   ar
@<TRIPOS>MOLECULE
*****
 30 33 0 0 0
SMALL
GASTEIGER

@<TRIPOS>ATOM
      1 C          61.7526   87.3554   10.5659 C.ar    1  UNL1        0.2490
      2 N          61.1470   87.5637    9.2095 N.ar    1  UNL1       -0.1863
      3 C          61.2407   86.4840    8.1724 C.ar    1  UNL1        0.2225
      4 N          61.9401   85.1961    8.4917 N.ar    1  UNL1       -0.1420
      5 N          62.5458   84.9878    9.8481 N.ar    1  UNL1       -0.2193
      6 C          63.2914   83.8326   10.4477 C.ar    1  UNL1        0.1371
      7 C          63.6584   84.1982   11.8554 C.ar    1  UNL1        0.1552
      8 C          63.1397   85.5795   12.1257 C.ar    1  UNL1        0.0359
      9 C          63.2833   86.3394   13.4110 C.3     1  UNL1        0.0360
     10 C          62.4520   86.0675   10.8851 C.ar    1  UNL1        0.1353
     11 O          61.6589   88.4351   11.6029 O.3     1  UNL1       -0.4328
     12 C          66.8544   93.8651   13.8712 C.3     1  UNL1        0.0521
     13 C          65.8832   92.9544   13.1802 C.2     1  UNL1        0.0591
     14 C          65.1452   91.8108   13.8107 C.2     1  UNL1        0.0182
     15 C          64.2854   91.1770   12.7575 C.2     1  UNL1        0.0455
     16 C          63.3410   90.0124   12.7998 C.2     1  UNL1        0.1752
     17 F          63.1343   89.2606   14.0812 F       1  UNL1       -0.2009
     18 C          62.6033   89.5997   11.5607 C.2     1  UNL1        0.1706
     19 C          62.8099   90.3516   10.2793 C.2     1  UNL1        0.0201
     20 C          63.7544   91.5162   10.2370 C.3     1  UNL1        0.0751
     21 C          64.4921   91.9289   11.4761 C.2     1  UNL1        0.0653
     22 N          65.4796   93.0274   11.7374 N.2     1  UNL1       -0.2536
     23 O          64.4119   83.3344   12.8229 O.3     1  UNL1       -0.4741
     24 C          63.7226   82.7953   14.0411 C.3     1  UNL1        0.2073
     25 C          63.7412   83.5772   15.3211 C.3     1  UNL1        0.0726
     26 C          62.5026   84.2843   15.7860 C.3     1  UNL1        0.1547
     27 S          62.6157   85.5080   16.6461 S.O2    1  UNL1       -0.0081
     28 C          62.7289   86.7317   17.5061 C.3     1  UNL1        0.1760
     29 O          61.1236   85.6597   16.6265 O.2     1  UNL1       -0.1729
     30 O          64.1079   85.3563   16.6656 O.2     1  UNL1       -0.1729
@<TRIPOS>BOND
     1    12    13    1
     2    13    14    2
     3    14    15    1
     4    15    16    2
     5    16    17    1
     6    16    18    1
     7    18    11    1
     8    11     1    1
     9     1     2   ar
    10     2     3   ar
    11     3     4   ar
    12     4     5   ar
    13     5     6   ar
    14     6     7   ar
    15     7    23    1
    16    23    24    1
    17    24    25    1
    18    25    26    1
    19    26    27    1
    20    27    28    1
    21    27    29    2
    22    27    30    2
    23     7     8   ar
    24     8     9    1
    25     8    10   ar
    26    18    19    2
    27    19    20    1
    28    20    21    1
    29    21    22    2
    30    22    13    1
    31    21    15    1
    32    10     1   ar
    33    10     5   ar
