@<TRIPOS>MOLECULE
*****
 30 33 0 0 0
SMALL
GASTEIGER

@<TRIPOS>ATOM
      1 N          63.4221   89.0852   13.0183 N.3     1  UNL1       -0.1490
      2 C          62.5622   89.1458   11.7906 C.3     1  UNL1        0.1409
      3 C          62.1154   87.8782   11.1248 C.ar    1  UNL1        0.0770
      4 C          61.2702   87.6259    9.9115 C.ar    1  UNL1        0.1148
      5 N          61.1609   86.1417    9.7233 N.ar    1  UNL1       -0.2226
      6 C          61.9384   85.4768   10.8203 C.ar    1  UNL1        0.1796
      7 N          62.5283   86.5500   11.6865 N.ar    1  UNL1       -0.2923
      8 C          63.3881   86.4895   12.9141 C.3     1  UNL1        0.2364
      9 S          63.8350   87.7571   13.5799 S.O2    1  UNL1        0.0629
     10 O          64.5063   88.6740   14.5591 O.2     1  UNL1       -0.1555
     11 O          64.4811   86.7474   14.4817 O.2     1  UNL1       -0.1555
     12 C          63.5435   90.5966   15.1281 C.3     1  UNL1        0.0240
     13 C          63.8690   90.3529   13.6843 C.3     1  UNL1        0.1019
     14 C          64.6414   91.3767   12.9063 C.ar    1  UNL1       -0.0061
     15 C          64.2890   91.6537   11.4749 C.ar    1  UNL1       -0.0021
     16 C          65.0615   92.6776   10.6970 C.ar    1  UNL1        0.0111
     17 C          66.1862   93.4244   11.3505 C.ar    1  UNL1        0.0577
     18 CL         66.9586   94.4483   10.5727 Cl      1  UNL1       -0.0822
     19 C          66.5386   93.1474   12.7821 C.ar    1  UNL1        0.0111
     20 C          65.7662   92.1235   13.5600 C.ar    1  UNL1       -0.0021
     21 C          63.8011   85.1613   13.4758 C.3     1  UNL1        0.0827
     22 C          62.7735   84.2493   14.0775 C.3     1  UNL1        0.1364
     23 O          61.8762   84.7483   15.1711 O.3     1  UNL1       -0.3799
     24 H          62.0904   85.6736   15.3681 H       1  UNL1        0.2108
     25 C          62.6432   82.8382   13.5857 C.ar    1  UNL1        0.0043
     26 C          61.8606   81.8359   14.3813 C.ar    1  UNL1       -0.0020
     27 C          61.7302   80.4248   13.8895 C.ar    1  UNL1       -0.0002
     28 C          62.3825   80.0160   12.6021 C.ar    1  UNL1       -0.0000
     29 C          63.1652   81.0183   11.8066 C.ar    1  UNL1       -0.0002
     30 C          63.2955   82.4293   12.2983 C.ar    1  UNL1       -0.0020
@<TRIPOS>BOND
     1    13    12    1
     2    13    14    1
     3    14    15   ar
     4    15    16   ar
     5    16    17   ar
     6    17    18    1
     7    17    19   ar
     8    19    20   ar
     9    13     1    1
    10     1     2    1
    11     2     3    1
    12     3     4   ar
    13     4     5   ar
    14     5     6   ar
    15     6     7   ar
    16     7     8    1
    17     8    21    1
    18    21    22    1
    19    22    23    1
    20    22    25    1
    21    25    26   ar
    22    26    27   ar
    23    27    28   ar
    24    28    29   ar
    25    29    30   ar
    26     8     9    1
    27     9    10    2
    28     9    11    2
    29    20    14   ar
    30     9     1    1
    31     7     3   ar
    32    30    25   ar
    33    23    24    1
@<TRIPOS>MOLECULE
*****
 30 33 0 0 0
SMALL
GASTEIGER

@<TRIPOS>ATOM
      1 N          62.2243   90.4532   11.1881 N.3     1  UNL1       -0.1490
      2 C          62.9738   91.4160   10.3154 C.3     1  UNL1        0.1409
      3 C          64.2580   92.0223   10.7983 C.ar    1  UNL1        0.0770
      4 C          65.2094   92.9940   10.1654 C.ar    1  UNL1        0.1148
      5 N          66.3321   93.2382   11.1297 N.ar    1  UNL1       -0.2226
      6 C          66.0746   92.4174   12.3585 C.ar    1  UNL1        0.1796
      7 N          64.7927   91.6659   12.1537 N.ar    1  UNL1       -0.2923
      8 C          64.0432   90.7032   13.0262 C.3     1  UNL1        0.2364
      9 S          62.7590   90.0968   12.5434 S.O2    1  UNL1        0.0629
     10 O          61.5098   89.2666   12.5297 O.2     1  UNL1       -0.1555
     11 O          62.8598   89.4521   13.8940 O.2     1  UNL1       -0.1555
     12 C          59.6267   90.4287   11.1374 C.3     1  UNL1        0.0240
     13 C          60.9400   89.8468   10.7052 C.3     1  UNL1        0.1019
     14 C          60.9690   88.6585    9.7903 C.ar    1  UNL1       -0.0061
     15 C          62.1011   87.6778    9.8704 C.ar    1  UNL1       -0.0021
     16 C          62.1301   86.4895    8.9554 C.ar    1  UNL1        0.0111
     17 C          61.0271   86.2820    7.9603 C.ar    1  UNL1        0.0577
     18 CL         61.0560   85.0938    7.0453 Cl      1  UNL1       -0.0822
     19 C          59.8950   87.2629    7.8802 C.ar    1  UNL1        0.0111
     20 C          59.8659   88.4511    8.7951 C.ar    1  UNL1       -0.0021
     21 C          64.5779   90.3468   14.3816 C.3     1  UNL1        0.0827
     22 C          64.9483   91.4304   15.3504 C.3     1  UNL1        0.1364
     23 O          63.9178   91.9786   16.2925 O.3     1  UNL1       -0.3799
     24 H          63.0721   91.5269   16.1451 H       1  UNL1        0.2108
     25 C          66.3493   91.9657   15.3771 C.ar    1  UNL1        0.0043
     26 C          67.4539   91.2099   14.6998 C.ar    1  UNL1       -0.0020
     27 C          68.8549   91.7451   14.7265 C.ar    1  UNL1       -0.0002
     28 C          69.1514   93.0361   15.4305 C.ar    1  UNL1       -0.0000
     29 C          68.0467   93.7918   16.1078 C.ar    1  UNL1       -0.0002
     30 C          66.6458   93.2566   16.0811 C.ar    1  UNL1       -0.0020
@<TRIPOS>BOND
     1    13    12    1
     2    13    14    1
     3    14    15   ar
     4    15    16   ar
     5    16    17   ar
     6    17    18    1
     7    17    19   ar
     8    19    20   ar
     9    13     1    1
    10     1     2    1
    11     2     3    1
    12     3     4   ar
    13     4     5   ar
    14     5     6   ar
    15     6     7   ar
    16     7     8    1
    17     8    21    1
    18    21    22    1
    19    22    23    1
    20    22    25    1
    21    25    26   ar
    22    26    27   ar
    23    27    28   ar
    24    28    29   ar
    25    29    30   ar
    26     8     9    1
    27     9    10    2
    28     9    11    2
    29    20    14   ar
    30     9     1    1
    31     7     3   ar
    32    30    25   ar
    33    23    24    1
@<TRIPOS>MOLECULE
*****
 30 33 0 0 0
SMALL
GASTEIGER

@<TRIPOS>ATOM
      1 N          61.8682   87.6959   11.2926 N.3     1  UNL1       -0.1490
      2 C          62.3246   86.5501   12.1465 C.3     1  UNL1        0.1409
      3 C          63.3378   86.7784   13.2287 C.ar    1  UNL1        0.0770
      4 C          63.9726   85.8500   14.2212 C.ar    1  UNL1        0.1148
      5 N          64.9218   86.6503   15.0631 N.ar    1  UNL1       -0.2226
      6 C          64.8736   88.0732   14.5909 C.ar    1  UNL1        0.1796
      7 N          63.8946   88.1524   13.4572 N.ar    1  UNL1       -0.2923
      8 C          63.4382   89.2981   12.6033 C.3     1  UNL1        0.2364
      9 S          62.4250   89.0698   11.5210 S.O2    1  UNL1        0.0629
     10 O          61.4927   89.3529   10.3805 O.2     1  UNL1       -0.1555
     11 O          62.6580   90.5421   11.3533 O.2     1  UNL1       -0.1555
     12 C          59.5038   88.1129   10.2996 C.3     1  UNL1        0.0240
     13 C          60.8550   87.4676   10.2103 C.3     1  UNL1        0.1019
     14 C          61.1929   86.5941    9.0387 C.ar    1  UNL1       -0.0061
     15 C          60.1412   86.2636    8.0215 C.ar    1  UNL1       -0.0021
     16 C          60.4792   85.3900    6.8499 C.ar    1  UNL1        0.0111
     17 C          61.8688   84.8470    6.6955 C.ar    1  UNL1        0.0577
     18 CL         62.2069   83.9734    5.5239 Cl      1  UNL1       -0.0822
     19 C          62.9206   85.1774    7.7127 C.ar    1  UNL1        0.0111
     20 C          62.5826   86.0510    8.8843 C.ar    1  UNL1       -0.0021
     21 C          63.9950   90.6721   12.8317 C.3     1  UNL1        0.0827
     22 C          64.2629   91.1502   14.2280 C.3     1  UNL1        0.1364
     23 O          63.1778   91.0914   15.2620 O.3     1  UNL1       -0.3799
     24 H          62.3734   90.7215   14.8659 H       1  UNL1        0.2108
     25 C          65.6160   91.6870   14.5902 C.ar    1  UNL1        0.0043
     26 C          65.8375   92.3185   15.9326 C.ar    1  UNL1       -0.0020
     27 C          67.1904   92.8553   16.2949 C.ar    1  UNL1       -0.0002
     28 C          68.3219   92.7607   15.3147 C.ar    1  UNL1       -0.0000
     29 C          68.1004   92.1291   13.9722 C.ar    1  UNL1       -0.0002
     30 C          66.7474   91.5924   13.6100 C.ar    1  UNL1       -0.0020
@<TRIPOS>BOND
     1    13    12    1
     2    13    14    1
     3    14    15   ar
     4    15    16   ar
     5    16    17   ar
     6    17    18    1
     7    17    19   ar
     8    19    20   ar
     9    13     1    1
    10     1     2    1
    11     2     3    1
    12     3     4   ar
    13     4     5   ar
    14     5     6   ar
    15     6     7   ar
    16     7     8    1
    17     8    21    1
    18    21    22    1
    19    22    23    1
    20    22    25    1
    21    25    26   ar
    22    26    27   ar
    23    27    28   ar
    24    28    29   ar
    25    29    30   ar
    26     8     9    1
    27     9    10    2
    28     9    11    2
    29    20    14   ar
    30     9     1    1
    31     7     3   ar
    32    30    25   ar
    33    23    24    1
@<TRIPOS>MOLECULE
*****
 30 33 0 0 0
SMALL
GASTEIGER

@<TRIPOS>ATOM
      1 N          64.0837   89.6369   14.5327 N.3     1  UNL1       -0.1490
      2 C          64.4228   88.2921   15.1043 C.3     1  UNL1        0.1409
      3 C          64.1161   87.0473   14.3256 C.ar    1  UNL1        0.0770
      4 C          64.3335   85.5945   14.6291 C.ar    1  UNL1        0.1148
      5 N          63.8220   84.7966   13.4665 N.ar    1  UNL1       -0.2226
      6 C          63.2885   85.7562   12.4444 C.ar    1  UNL1        0.1796
      7 N          63.4703   87.1472   12.9754 N.ar    1  UNL1       -0.2923
      8 C          63.1312   88.4920   12.4040 C.3     1  UNL1        0.2364
      9 S          63.4379   89.7368   13.1826 S.O2    1  UNL1        0.0629
     10 O          63.5316   91.1919   13.5349 O.2     1  UNL1       -0.1555
     11 O          62.8246   90.3421   11.9548 O.2     1  UNL1       -0.1555
     12 C          63.3354   91.5037   16.1775 C.3     1  UNL1        0.0240
     13 C          64.3904   90.8818   15.3114 C.3     1  UNL1        0.1019
     14 C          65.7522   91.5046   15.2241 C.ar    1  UNL1       -0.0061
     15 C          66.2210   92.4369   16.3016 C.ar    1  UNL1       -0.0021
     16 C          67.5829   93.0598   16.2141 C.ar    1  UNL1        0.0111
     17 C          68.4757   92.7503   15.0493 C.ar    1  UNL1        0.0577
     18 CL         69.8375   93.3731   14.9618 Cl      1  UNL1       -0.0822
     19 C          68.0068   91.8180   13.9717 C.ar    1  UNL1        0.0111
     20 C          66.6451   91.1951   14.0591 C.ar    1  UNL1       -0.0021
     21 C          62.4853   88.5920   11.0538 C.3     1  UNL1        0.0827
     22 C          61.3011   87.7326   10.7234 C.3     1  UNL1        0.1364
     23 O          60.1005   87.7323   11.6225 O.3     1  UNL1       -0.3799
     24 H          60.2528   88.3371   12.3654 H       1  UNL1        0.2108
     25 C          61.3177   86.8736    9.4938 C.ar    1  UNL1        0.0043
     26 C          60.0761   86.7264    8.6650 C.ar    1  UNL1       -0.0020
     27 C          60.0925   85.8675    7.4354 C.ar    1  UNL1       -0.0002
     28 C          61.3505   85.1557    7.0346 C.ar    1  UNL1       -0.0000
     29 C          62.5921   85.3029    7.8634 C.ar    1  UNL1       -0.0002
     30 C          62.5757   86.1618    9.0929 C.ar    1  UNL1       -0.0020
@<TRIPOS>BOND
     1    13    12    1
     2    13    14    1
     3    14    15   ar
     4    15    16   ar
     5    16    17   ar
     6    17    18    1
     7    17    19   ar
     8    19    20   ar
     9    13     1    1
    10     1     2    1
    11     2     3    1
    12     3     4   ar
    13     4     5   ar
    14     5     6   ar
    15     6     7   ar
    16     7     8    1
    17     8    21    1
    18    21    22    1
    19    22    23    1
    20    22    25    1
    21    25    26   ar
    22    26    27   ar
    23    27    28   ar
    24    28    29   ar
    25    29    30   ar
    26     8     9    1
    27     9    10    2
    28     9    11    2
    29    20    14   ar
    30     9     1    1
    31     7     3   ar
    32    30    25   ar
    33    23    24    1
@<TRIPOS>MOLECULE
*****
 30 33 0 0 0
SMALL
GASTEIGER

@<TRIPOS>ATOM
      1 N          62.9157   85.2168   13.1312 N.3     1  UNL1       -0.1490
      2 C          62.1965   85.6208   11.8783 C.3     1  UNL1        0.1409
      3 C          62.2631   87.0410   11.4002 C.ar    1  UNL1        0.0770
      4 C          61.6619   87.7286   10.2103 C.ar    1  UNL1        0.1148
      5 N          62.0761   89.1697   10.2496 N.ar    1  UNL1       -0.2226
      6 C          62.9332   89.3728   11.4637 C.ar    1  UNL1        0.1796
      7 N          63.0488   88.0571   12.1748 N.ar    1  UNL1       -0.2923
      8 C          63.7679   87.6531   13.4277 C.3     1  UNL1        0.2364
      9 S          63.7014   86.2329   13.9058 S.O2    1  UNL1        0.0629
     10 O          63.9360   85.0193   14.7555 O.2     1  UNL1       -0.1555
     11 O          64.5686   86.8275   14.9756 O.2     1  UNL1       -0.1555
     12 C          62.7099   83.5041   15.0740 C.3     1  UNL1        0.0240
     13 C          62.8492   83.7965   13.6094 C.3     1  UNL1        0.1019
     14 C          62.9219   82.6689   12.6230 C.ar    1  UNL1       -0.0061
     15 C          62.3913   81.3150   12.9911 C.ar    1  UNL1       -0.0021
     16 C          62.4640   80.1873   12.0046 C.ar    1  UNL1        0.0111
     17 C          63.0673   80.4135   10.6501 C.ar    1  UNL1        0.0577
     18 CL         63.1400   79.2859    9.6636 Cl      1  UNL1       -0.0822
     19 C          63.5979   81.7675   10.2820 C.ar    1  UNL1        0.0111
     20 C          63.5252   82.8951   11.2684 C.ar    1  UNL1       -0.0021
     21 C          64.5537   88.6692   14.2023 C.3     1  UNL1        0.0827
     22 C          64.0020   90.0495   14.4036 C.3     1  UNL1        0.1364
     23 O          62.5668   90.2333   14.7991 O.3     1  UNL1       -0.3799
     24 H          62.1407   89.3659   14.8819 H       1  UNL1        0.2108
     25 C          64.8856   91.2460   14.2092 C.ar    1  UNL1        0.0043
     26 C          65.0339   91.8554   12.8467 C.ar    1  UNL1       -0.0020
     27 C          65.9175   93.0519   12.6523 C.ar    1  UNL1       -0.0002
     28 C          66.6528   93.6389   13.8204 C.ar    1  UNL1       -0.0000
     29 C          66.5045   93.0294   15.1830 C.ar    1  UNL1       -0.0002
     30 C          65.6210   91.8330   15.3774 C.ar    1  UNL1       -0.0020
@<TRIPOS>BOND
     1    13    12    1
     2    13    14    1
     3    14    15   ar
     4    15    16   ar
     5    16    17   ar
     6    17    18    1
     7    17    19   ar
     8    19    20   ar
     9    13     1    1
    10     1     2    1
    11     2     3    1
    12     3     4   ar
    13     4     5   ar
    14     5     6   ar
    15     6     7   ar
    16     7     8    1
    17     8    21    1
    18    21    22    1
    19    22    23    1
    20    22    25    1
    21    25    26   ar
    22    26    27   ar
    23    27    28   ar
    24    28    29   ar
    25    29    30   ar
    26     8     9    1
    27     9    10    2
    28     9    11    2
    29    20    14   ar
    30     9     1    1
    31     7     3   ar
    32    30    25   ar
    33    23    24    1
@<TRIPOS>MOLECULE
*****
 30 33 0 0 0
SMALL
GASTEIGER

@<TRIPOS>ATOM
      1 N          63.4914   86.8368   13.1842 N.3     1  UNL1       -0.1490
      2 C          62.7087   86.7760   11.9059 C.3     1  UNL1        0.1409
      3 C          62.2813   88.0436   11.2273 C.ar    1  UNL1        0.0770
      4 C          61.5071   88.2958    9.9676 C.ar    1  UNL1        0.1148
      5 N          61.3838   89.7799    9.7886 N.ar    1  UNL1       -0.2226
      6 C          62.0817   90.4450   10.9377 C.ar    1  UNL1        0.1796
      7 N          62.6364   89.3719   11.8269 N.ar    1  UNL1       -0.2923
      8 C          63.4190   89.4326   13.1052 C.3     1  UNL1        0.2364
      9 S          63.8465   88.1650   13.7838 S.O2    1  UNL1        0.0629
     10 O          64.4728   87.2482   14.7923 O.2     1  UNL1       -0.1555
     11 O          64.4192   89.1749   14.7336 O.2     1  UNL1       -0.1555
     12 C          64.6227   85.6275   15.1862 C.3     1  UNL1        0.0240
     13 C          63.9188   85.5692   13.8629 C.3     1  UNL1        0.1019
     14 C          63.6424   84.2433   13.2182 C.ar    1  UNL1       -0.0061
     15 C          62.5825   83.3427   13.7799 C.ar    1  UNL1       -0.0021
     16 C          62.3061   82.0168   13.1351 C.ar    1  UNL1        0.0111
     17 C          63.0896   81.5915   11.9288 C.ar    1  UNL1        0.0577
     18 CL         62.8132   80.2657   11.2840 Cl      1  UNL1       -0.0822
     19 C          64.1496   82.4922   11.3671 C.ar    1  UNL1        0.0111
     20 C          64.4260   83.8181   12.0118 C.ar    1  UNL1       -0.0021
     21 C          63.7742   90.7609   13.7048 C.3     1  UNL1        0.0827
     22 C          64.9224   91.5511   13.1505 C.3     1  UNL1        0.1364
     23 O          64.9263   91.9560   11.7062 O.3     1  UNL1       -0.3799
     24 H          64.1202   91.6296   11.2767 H       1  UNL1        0.2108
     25 C          66.0667   91.9362   14.0406 C.ar    1  UNL1        0.0043
     26 C          67.4718   91.8915   13.5175 C.ar    1  UNL1       -0.0020
     27 C          68.6161   92.2767   14.4075 C.ar    1  UNL1       -0.0002
     28 C          68.3554   92.7065   15.8207 C.ar    1  UNL1       -0.0000
     29 C          66.9502   92.7512   16.3439 C.ar    1  UNL1       -0.0002
     30 C          65.8060   92.3661   15.4539 C.ar    1  UNL1       -0.0020
@<TRIPOS>BOND
     1    13    12    1
     2    13    14    1
     3    14    15   ar
     4    15    16   ar
     5    16    17   ar
     6    17    18    1
     7    17    19   ar
     8    19    20   ar
     9    13     1    1
    10     1     2    1
    11     2     3    1
    12     3     4   ar
    13     4     5   ar
    14     5     6   ar
    15     6     7   ar
    16     7     8    1
    17     8    21    1
    18    21    22    1
    19    22    23    1
    20    22    25    1
    21    25    26   ar
    22    26    27   ar
    23    27    28   ar
    24    28    29   ar
    25    29    30   ar
    26     8     9    1
    27     9    10    2
    28     9    11    2
    29    20    14   ar
    30     9     1    1
    31     7     3   ar
    32    30    25   ar
    33    23    24    1
@<TRIPOS>MOLECULE
*****
 30 33 0 0 0
SMALL
GASTEIGER

@<TRIPOS>ATOM
      1 N          62.5857   89.1297   11.7871 N.3     1  UNL1       -0.1490
      2 C          62.9372   89.0673   13.2440 C.3     1  UNL1        0.1409
      3 C          63.8024   90.1306   13.8529 C.ar    1  UNL1        0.0770
      4 C          64.3118   90.3323   15.2493 C.ar    1  UNL1        0.1148
      5 N          65.1403   91.5826   15.2643 N.ar    1  UNL1       -0.2226
      6 C          65.1430   92.1536   13.8772 C.ar    1  UNL1        0.1796
      7 N          64.3162   91.2562   13.0049 N.ar    1  UNL1       -0.2923
      8 C          63.9646   91.3185   11.5480 C.3     1  UNL1        0.2364
      9 S          63.0994   90.2552   10.9391 S.O2    1  UNL1        0.0629
     10 O          62.3184   89.4907    9.9118 O.2     1  UNL1       -0.1555
     11 O          63.3419   91.1153    9.7343 O.2     1  UNL1       -0.1555
     12 C          60.2860   88.3614   10.8536 C.3     1  UNL1        0.0240
     13 C          61.7204   88.0663   11.1781 C.3     1  UNL1        0.1019
     14 C          62.2896   86.7080   10.8938 C.ar    1  UNL1       -0.0061
     15 C          62.6660   85.8003   12.0271 C.ar    1  UNL1       -0.0021
     16 C          63.2352   84.4418   11.7426 C.ar    1  UNL1        0.0111
     17 C          63.4280   83.9913   10.3250 C.ar    1  UNL1        0.0577
     18 CL         63.9972   82.6329   10.0405 Cl      1  UNL1       -0.0822
     19 C          63.0516   84.8991    9.1917 C.ar    1  UNL1        0.0111
     20 C          62.4824   86.2574    9.4760 C.ar    1  UNL1       -0.0021
     21 C          64.4784   92.4441   10.7000 C.3     1  UNL1        0.0827
     22 C          65.9310   92.8153   10.7461 C.3     1  UNL1        0.1364
     23 O          66.9377   91.8401   11.2803 O.3     1  UNL1       -0.3799
     24 H          66.4864   91.0253   11.5511 H       1  UNL1        0.2108
     25 C          66.3768   94.1618   10.2578 C.ar    1  UNL1        0.0043
     26 C          67.1377   94.2785    8.9705 C.ar    1  UNL1       -0.0020
     27 C          67.5835   95.6249    8.4822 C.ar    1  UNL1       -0.0002
     28 C          67.2685   96.8546    9.2813 C.ar    1  UNL1       -0.0000
     29 C          66.5075   96.7378   10.5687 C.ar    1  UNL1       -0.0002
     30 C          66.0617   95.3915   11.0570 C.ar    1  UNL1       -0.0020
@<TRIPOS>BOND
     1    13    12    1
     2    13    14    1
     3    14    15   ar
     4    15    16   ar
     5    16    17   ar
     6    17    18    1
     7    17    19   ar
     8    19    20   ar
     9    13     1    1
    10     1     2    1
    11     2     3    1
    12     3     4   ar
    13     4     5   ar
    14     5     6   ar
    15     6     7   ar
    16     7     8    1
    17     8    21    1
    18    21    22    1
    19    22    23    1
    20    22    25    1
    21    25    26   ar
    22    26    27   ar
    23    27    28   ar
    24    28    29   ar
    25    29    30   ar
    26     8     9    1
    27     9    10    2
    28     9    11    2
    29    20    14   ar
    30     9     1    1
    31     7     3   ar
    32    30    25   ar
    33    23    24    1
@<TRIPOS>MOLECULE
*****
 30 33 0 0 0
SMALL
GASTEIGER

@<TRIPOS>ATOM
      1 N          62.4627   86.2501   11.8229 N.3     1  UNL1       -0.1490
      2 C          61.5499   85.9318   10.6758 C.3     1  UNL1        0.1409
      3 C          60.8829   87.0412    9.9180 C.ar    1  UNL1        0.0770
      4 C          59.9396   87.0344    8.7518 C.ar    1  UNL1        0.1148
      5 N          59.6023   88.4579    8.4202 N.ar    1  UNL1       -0.2226
      6 C          60.3372   89.3444    9.3815 C.ar    1  UNL1        0.1796
      7 N          61.1286   88.4689   10.3071 N.ar    1  UNL1       -0.2923
      8 C          62.0414   88.7871   11.4542 C.3     1  UNL1        0.2364
      9 S          62.7084   87.6777   12.2120 S.O2    1  UNL1        0.0629
     10 O          63.5639   86.9800   13.2275 O.2     1  UNL1       -0.1555
     11 O          63.2512   88.8630   12.9539 O.2     1  UNL1       -0.1555
     12 C          63.8026   85.4260   13.8906 C.3     1  UNL1        0.0240
     13 C          63.1297   85.1407   12.5807 C.3     1  UNL1        0.1019
     14 C          63.1238   83.7460   12.0287 C.ar    1  UNL1       -0.0061
     15 C          62.4169   82.6494   12.7688 C.ar    1  UNL1       -0.0021
     16 C          62.4111   81.2547   12.2166 C.ar    1  UNL1        0.0111
     17 C          63.1121   80.9566   10.9246 C.ar    1  UNL1        0.0577
     18 CL         63.1063   79.5619   10.3724 Cl      1  UNL1       -0.0822
     19 C          63.8191   82.0532   10.1845 C.ar    1  UNL1        0.0111
     20 C          63.8249   83.4479   10.7365 C.ar    1  UNL1       -0.0021
     21 C          62.2871   90.2148   11.8433 C.3     1  UNL1        0.0827
     22 C          63.1685   91.0824   10.9946 C.3     1  UNL1        0.1364
     23 O          62.8123   91.3375    9.5600 O.3     1  UNL1       -0.3799
     24 H          61.9897   90.8714    9.3433 H       1  UNL1        0.2108
     25 C          64.4060   91.6950   11.5806 C.ar    1  UNL1        0.0043
     26 C          65.3602   92.4461   10.7001 C.ar    1  UNL1       -0.0020
     27 C          66.5977   93.0587   11.2860 C.ar    1  UNL1       -0.0002
     28 C          66.8811   92.9202   12.7524 C.ar    1  UNL1       -0.0000
     29 C          65.9268   92.1690   13.6330 C.ar    1  UNL1       -0.0002
     30 C          64.6894   91.5565   13.0471 C.ar    1  UNL1       -0.0020
@<TRIPOS>BOND
     1    13    12    1
     2    13    14    1
     3    14    15   ar
     4    15    16   ar
     5    16    17   ar
     6    17    18    1
     7    17    19   ar
     8    19    20   ar
     9    13     1    1
    10     1     2    1
    11     2     3    1
    12     3     4   ar
    13     4     5   ar
    14     5     6   ar
    15     6     7   ar
    16     7     8    1
    17     8    21    1
    18    21    22    1
    19    22    23    1
    20    22    25    1
    21    25    26   ar
    22    26    27   ar
    23    27    28   ar
    24    28    29   ar
    25    29    30   ar
    26     8     9    1
    27     9    10    2
    28     9    11    2
    29    20    14   ar
    30     9     1    1
    31     7     3   ar
    32    30    25   ar
    33    23    24    1
@<TRIPOS>MOLECULE
*****
 30 33 0 0 0
SMALL
GASTEIGER

@<TRIPOS>ATOM
      1 N          61.9428   90.1684   11.7365 N.3     1  UNL1       -0.1490
      2 C          62.0093   89.7853   13.1853 C.3     1  UNL1        0.1409
      3 C          63.2154   90.1446   14.0015 C.ar    1  UNL1        0.0770
      4 C          63.5619   89.9021   15.4406 C.ar    1  UNL1        0.1148
      5 N          64.9158   90.4947   15.6974 N.ar    1  UNL1       -0.2226
      6 C          65.4059   91.1034   14.4171 C.ar    1  UNL1        0.1796
      7 N          64.3550   90.8870   13.3689 N.ar    1  UNL1       -0.2923
      8 C          64.2885   91.2701   11.9202 C.3     1  UNL1        0.2364
      9 S          63.0824   90.9108   11.1040 S.O2    1  UNL1        0.0629
     10 O          62.1610   90.7954    9.9260 O.2     1  UNL1       -0.1555
     11 O          63.9020   91.6131   10.0623 O.2     1  UNL1       -0.1555
     12 C          59.4770   90.6133   11.0493 C.3     1  UNL1        0.0240
     13 C          60.7366   89.8091   10.9202 C.3     1  UNL1        0.1019
     14 C          60.7901   88.6456    9.9750 C.ar    1  UNL1       -0.0061
     15 C          61.8362   87.5848   10.1499 C.ar    1  UNL1       -0.0021
     16 C          61.8896   86.4213    9.2046 C.ar    1  UNL1        0.0111
     17 C          60.8972   86.3186    8.0847 C.ar    1  UNL1        0.0577
     18 CL         60.9505   85.1552    7.1394 Cl      1  UNL1       -0.0822
     19 C          59.8511   87.3795    7.9099 C.ar    1  UNL1        0.0111
     20 C          59.7976   88.5430    8.8550 C.ar    1  UNL1       -0.0021
     21 C          65.4281   92.0125   11.2876 C.3     1  UNL1        0.0827
     22 C          65.7413   93.4146   11.7189 C.3     1  UNL1        0.1364
     23 O          65.5047   93.8327   13.1399 O.3     1  UNL1       -0.3799
     24 H          65.1500   93.0829   13.6428 H       1  UNL1        0.2108
     25 C          66.2911   94.3986   10.7291 C.ar    1  UNL1        0.0043
     26 C          67.0194   93.9106    9.5120 C.ar    1  UNL1       -0.0020
     27 C          67.5692   94.8944    8.5222 C.ar    1  UNL1       -0.0002
     28 C          67.3906   96.3663    8.7495 C.ar    1  UNL1       -0.0000
     29 C          66.6622   96.8543    9.9666 C.ar    1  UNL1       -0.0002
     30 C          66.1125   95.8705   10.9564 C.ar    1  UNL1       -0.0020
@<TRIPOS>BOND
     1    13    12    1
     2    13    14    1
     3    14    15   ar
     4    15    16   ar
     5    16    17   ar
     6    17    18    1
     7    17    19   ar
     8    19    20   ar
     9    13     1    1
    10     1     2    1
    11     2     3    1
    12     3     4   ar
    13     4     5   ar
    14     5     6   ar
    15     6     7   ar
    16     7     8    1
    17     8    21    1
    18    21    22    1
    19    22    23    1
    20    22    25    1
    21    25    26   ar
    22    26    27   ar
    23    27    28   ar
    24    28    29   ar
    25    29    30   ar
    26     8     9    1
    27     9    10    2
    28     9    11    2
    29    20    14   ar
    30     9     1    1
    31     7     3   ar
    32    30    25   ar
    33    23    24    1
