@<TRIPOS>MOLECULE
*****
 42 47 0 0 0
SMALL
GASTEIGER

@<TRIPOS>ATOM
      1 N          61.9966   87.5390   11.1395 N.3     1  UNL1       -0.2679
      2 C          61.0750   87.2278    9.9976 C.3     1  UNL1        0.0978
      3 C          59.6942   87.8128    9.9673 C.3     1  UNL1        0.0224
      4 C          58.7726   87.5016    8.8255 C.3     1  UNL1        0.0065
      5 C          59.2319   86.6053    7.7138 C.3     1  UNL1        0.0277
      6 C          60.6128   86.0203    7.7441 C.ar    1  UNL1       -0.0073
      7 C          61.0721   85.1240    6.6324 C.ar    1  UNL1       -0.0015
      8 C          62.4530   84.5390    6.6626 C.ar    1  UNL1        0.0203
      9 C          63.3745   84.8502    7.8045 C.ar    1  UNL1        0.0985
     10 N          62.9152   85.7464    8.9161 N.ar    1  UNL1       -0.2471
     11 C          61.5343   86.3315    8.8859 C.ar    1  UNL1        0.0695
     12 C          61.7863   88.7793   11.9563 C.3     1  UNL1        0.0725
     13 C          62.0859   90.1256   11.3665 C.3     1  UNL1        0.0188
     14 C          63.4816   90.6729   11.4172 C.3     1  UNL1        0.0188
     15 C          63.7550   91.9652   12.1280 C.3     1  UNL1        0.0727
     16 N          65.1008   92.2131   12.7424 N.3     1  UNL1       -0.2651
     17 C          65.6853   91.2139   13.6962 C.3     1  UNL1        0.1009
     18 C          63.6605   88.3452   15.5458 C.ar    1  UNL1        0.0204
     19 C          63.0319   89.1192   16.6664 C.ar    1  UNL1        0.0989
     20 N          63.2878   90.5915   16.7969 N.ar    1  UNL1       -0.2426
     21 C          64.1722   91.2897   15.8069 C.ar    1  UNL1        0.0959
     22 C          64.8008   90.5156   14.6863 C.ar    1  UNL1        0.0131
     23 C          64.5450   89.0434   14.5558 C.ar    1  UNL1        0.0002
     24 C          65.8620   93.4602   12.4029 C.3     1  UNL1        0.1009
     25 C          66.6678   93.5265   11.1395 C.ar    1  UNL1        0.0131
     26 C          67.3645   92.3001   10.6290 C.ar    1  UNL1        0.0002
     27 C          68.1703   92.3665    9.3656 C.ar    1  UNL1        0.0204
     28 C          68.2794   93.6592    8.6127 C.ar    1  UNL1        0.0989
     29 N          67.5828   94.8856    9.1231 N.ar    1  UNL1       -0.2426
     30 C          66.7770   94.8192   10.3865 C.ar    1  UNL1        0.0959
     31 C          63.1284   86.6098   11.4644 C.3     1  UNL1        0.0886
     32 C          62.8595   85.3259   12.1919 C.3     1  UNL1        0.0748
     33 C          63.0188   84.0141   11.4821 C.3     1  UNL1        0.0432
     34 C          62.7499   82.7301   12.2096 C.ar    1  UNL1       -0.0234
     35 C          62.9091   81.4184   11.4998 C.ar    1  UNL1       -0.0045
     36 C          62.6402   80.1345   12.2273 C.ar    1  UNL1       -0.0003
     37 C          62.2121   80.1624   13.6647 C.ar    1  UNL1       -0.0003
     38 C          62.0528   81.4742   14.3745 C.ar    1  UNL1       -0.0032
     39 C          62.3217   82.7580   13.6470 C.ar    1  UNL1       -0.0103
     40 C          62.1625   84.0699   14.3568 C.3     1  UNL1        0.0953
     41 N          62.4314   85.3538   13.6293 N.3     1  UNL1       -0.2934
     42 H          63.1663   85.8367   14.1461 H       1  UNL1        0.1236
@<TRIPOS>BOND
     1    18    19   ar
     2    19    20   ar
     3    20    21   ar
     4    21    22   ar
     5    22    17    1
     6    17    16    1
     7    16    15    1
     8    15    14    1
     9    14    13    1
    10    13    12    1
    11    12     1    1
    12     1    31    1
    13    32    31    1
    14    32    33    1
    15    33    34    1
    16    34    35   ar
    17    35    36   ar
    18    36    37   ar
    19    37    38   ar
    20    38    39   ar
    21    39    40    1
    22    40    41    1
    23     2     1    1
    24     2     3    1
    25     3     4    1
    26     4     5    1
    27     5     6    1
    28     6     7   ar
    29     7     8   ar
    30     8     9   ar
    31     9    10   ar
    32    10    11   ar
    33    16    24    1
    34    24    25    1
    35    25    26   ar
    36    26    27   ar
    37    27    28   ar
    38    28    29   ar
    39    29    30   ar
    40    22    23   ar
    41    23    18   ar
    42    41    32    1
    43    11     2    1
    44    30    25   ar
    45    39    34   ar
    46    11     6   ar
    47    41    42    1
@<TRIPOS>MOLECULE
*****
 42 47 0 0 0
SMALL
GASTEIGER

@<TRIPOS>ATOM
      1 N          62.0281   87.5495   11.1555 N.3     1  UNL1       -0.2679
      2 C          61.0873   87.2665   10.0220 C.3     1  UNL1        0.0978
      3 C          59.7218   87.8870   10.0081 C.3     1  UNL1        0.0224
      4 C          58.7810   87.6041    8.8746 C.3     1  UNL1        0.0065
      5 C          59.2057   86.7007    7.7550 C.3     1  UNL1        0.0277
      6 C          60.5712   86.0802    7.7690 C.ar    1  UNL1       -0.0073
      7 C          60.9960   85.1768    6.6494 C.ar    1  UNL1       -0.0015
      8 C          62.3616   84.5563    6.6634 C.ar    1  UNL1        0.0203
      9 C          63.3024   84.8392    7.7969 C.ar    1  UNL1        0.0985
     10 N          62.8776   85.7426    8.9164 N.ar    1  UNL1       -0.2471
     11 C          61.5120   86.3631    8.9025 C.ar    1  UNL1        0.0695
     12 C          61.8513   88.7859   11.9861 C.3     1  UNL1        0.0725
     13 C          62.1357   90.1344   11.3938 C.3     1  UNL1        0.0188
     14 C          63.5261   90.6953   11.4390 C.3     1  UNL1        0.0188
     15 C          63.7955   91.9732   12.1767 C.3     1  UNL1        0.0727
     16 N          65.1468   92.2209   12.7791 N.3     1  UNL1       -0.2651
     17 C          65.9276   93.4421   12.3932 C.3     1  UNL1        0.1009
     18 C          68.2666   92.2788    9.4055 C.ar    1  UNL1        0.0204
     19 C          68.2497   93.5031    8.5391 C.ar    1  UNL1        0.0989
     20 N          67.4588   94.7071    8.9574 N.ar    1  UNL1       -0.2426
     21 C          66.6848   94.6868   10.2420 C.ar    1  UNL1        0.0959
     22 C          66.7017   93.4625   11.1084 C.ar    1  UNL1        0.0131
     23 C          67.4925   92.2585   10.6902 C.ar    1  UNL1        0.0002
     24 C          65.7172   91.2473   13.7674 C.3     1  UNL1        0.1009
     25 C          64.8118   90.5410   14.7325 C.ar    1  UNL1        0.0131
     26 C          64.5712   89.0670   14.5937 C.ar    1  UNL1        0.0002
     27 C          63.6658   88.3607   15.5587 C.ar    1  UNL1        0.0204
     28 C          63.0010   89.1285   16.6626 C.ar    1  UNL1        0.0989
     29 N          63.2416   90.6025   16.8015 N.ar    1  UNL1       -0.2426
     30 C          64.1470   91.3087   15.8364 C.ar    1  UNL1        0.0959
     31 C          63.1457   86.5959   11.4584 C.3     1  UNL1        0.0886
     32 C          62.8656   85.3245   12.2036 C.3     1  UNL1        0.0748
     33 C          63.0102   84.0019   11.5110 C.3     1  UNL1        0.0432
     34 C          62.7302   82.7305   12.2562 C.ar    1  UNL1       -0.0234
     35 C          62.8748   81.4079   11.5636 C.ar    1  UNL1       -0.0045
     36 C          62.5947   80.1366   12.3087 C.ar    1  UNL1       -0.0003
     37 C          62.1701   80.1879   13.7465 C.ar    1  UNL1       -0.0003
     38 C          62.0255   81.5105   14.4390 C.ar    1  UNL1       -0.0032
     39 C          62.3055   82.7818   13.6939 C.ar    1  UNL1       -0.0103
     40 C          62.1610   84.1045   14.3865 C.3     1  UNL1        0.0953
     41 N          62.4410   85.3758   13.6413 N.3     1  UNL1       -0.2934
     42 H          63.1818   85.8583   14.1501 H       1  UNL1        0.1236
@<TRIPOS>BOND
     1    18    19   ar
     2    19    20   ar
     3    20    21   ar
     4    21    22   ar
     5    22    17    1
     6    17    16    1
     7    16    15    1
     8    15    14    1
     9    14    13    1
    10    13    12    1
    11    12     1    1
    12     1    31    1
    13    32    31    1
    14    32    33    1
    15    33    34    1
    16    34    35   ar
    17    35    36   ar
    18    36    37   ar
    19    37    38   ar
    20    38    39   ar
    21    39    40    1
    22    40    41    1
    23     2     1    1
    24     2     3    1
    25     3     4    1
    26     4     5    1
    27     5     6    1
    28     6     7   ar
    29     7     8   ar
    30     8     9   ar
    31     9    10   ar
    32    10    11   ar
    33    16    24    1
    34    24    25    1
    35    25    26   ar
    36    26    27   ar
    37    27    28   ar
    38    28    29   ar
    39    29    30   ar
    40    22    23   ar
    41    23    18   ar
    42    41    32    1
    43    11     2    1
    44    30    25   ar
    45    39    34   ar
    46    11     6   ar
    47    41    42    1
@<TRIPOS>MOLECULE
*****
 42 47 0 0 0
SMALL
GASTEIGER

@<TRIPOS>ATOM
      1 N          61.6360   87.3962   11.0842 N.3     1  UNL1       -0.2679
      2 C          60.8441   87.0542    9.8570 C.3     1  UNL1        0.0978
      3 C          59.4449   87.5711    9.6991 C.3     1  UNL1        0.0224
      4 C          58.6530   87.2291    8.4719 C.3     1  UNL1        0.0065
      5 C          59.2603   86.3702    7.4026 C.3     1  UNL1        0.0277
      6 C          60.6595   85.8533    7.5605 C.ar    1  UNL1       -0.0073
      7 C          61.2669   84.9943    6.4912 C.ar    1  UNL1       -0.0015
      8 C          62.6661   84.4774    6.6491 C.ar    1  UNL1        0.0203
      9 C          63.4580   84.8194    7.8763 C.ar    1  UNL1        0.0985
     10 N          62.8507   85.6783    8.9456 N.ar    1  UNL1       -0.2471
     11 C          61.4514   86.1953    8.7877 C.ar    1  UNL1        0.0695
     12 C          61.2261   88.5563   11.9421 C.3     1  UNL1        0.0725
     13 C          61.2319   89.9459   11.3772 C.3     1  UNL1        0.0188
     14 C          62.4539   90.8051   11.5118 C.3     1  UNL1        0.0188
     15 C          63.6298   90.3177   12.3053 C.3     1  UNL1        0.0727
     16 N          64.2234   91.1845   13.3760 N.3     1  UNL1       -0.2651
     17 C          63.8653   90.9516   14.8138 C.3     1  UNL1        0.1009
     18 C          62.9649   87.8966   17.1817 C.ar    1  UNL1        0.0204
     19 C          63.5402   86.7529   16.3999 C.ar    1  UNL1        0.0989
     20 N          64.2237   87.0088   15.0895 N.ar    1  UNL1       -0.2426
     21 C          64.3321   88.4083   14.5608 C.ar    1  UNL1        0.0959
     22 C          63.7569   89.5520   15.3425 C.ar    1  UNL1        0.0131
     23 C          63.0733   89.2961   16.6530 C.ar    1  UNL1        0.0002
     24 C          65.1750   92.2843   13.0088 C.3     1  UNL1        0.1009
     25 C          66.4581   92.4505   13.7679 C.ar    1  UNL1        0.0131
     26 C          66.4599   93.1537   15.0928 C.ar    1  UNL1        0.0002
     27 C          67.7429   93.3199   15.8519 C.ar    1  UNL1        0.0204
     28 C          69.0240   92.7828   15.2861 C.ar    1  UNL1        0.0989
     29 N          69.0222   92.0796   13.9612 N.ar    1  UNL1       -0.2426
     30 C          67.7392   91.9134   13.2021 C.ar    1  UNL1        0.0959
     31 C          62.8378   86.5781   11.4534 C.3     1  UNL1        0.0886
     32 C          62.6649   85.2756   12.1772 C.3     1  UNL1        0.0748
     33 C          62.8614   83.9801   11.4472 C.3     1  UNL1        0.0432
     34 C          62.6885   82.6776   12.1710 C.ar    1  UNL1       -0.0234
     35 C          62.8850   81.3821   11.4410 C.ar    1  UNL1       -0.0045
     36 C          62.7122   80.0797   12.1649 C.ar    1  UNL1       -0.0003
     37 C          62.3428   80.0729   13.6186 C.ar    1  UNL1       -0.0003
     38 C          62.1463   81.3685   14.3486 C.ar    1  UNL1       -0.0032
     39 C          62.3191   82.6708   13.6248 C.ar    1  UNL1       -0.0103
     40 C          62.1226   83.9664   14.3548 C.3     1  UNL1        0.0953
     41 N          62.2955   85.2688   13.6310 N.3     1  UNL1       -0.2934
     42 H          63.0255   85.7843   14.1227 H       1  UNL1        0.1236
@<TRIPOS>BOND
     1    18    19   ar
     2    19    20   ar
     3    20    21   ar
     4    21    22   ar
     5    22    17    1
     6    17    16    1
     7    16    15    1
     8    15    14    1
     9    14    13    1
    10    13    12    1
    11    12     1    1
    12     1    31    1
    13    32    31    1
    14    32    33    1
    15    33    34    1
    16    34    35   ar
    17    35    36   ar
    18    36    37   ar
    19    37    38   ar
    20    38    39   ar
    21    39    40    1
    22    40    41    1
    23     2     1    1
    24     2     3    1
    25     3     4    1
    26     4     5    1
    27     5     6    1
    28     6     7   ar
    29     7     8   ar
    30     8     9   ar
    31     9    10   ar
    32    10    11   ar
    33    16    24    1
    34    24    25    1
    35    25    26   ar
    36    26    27   ar
    37    27    28   ar
    38    28    29   ar
    39    29    30   ar
    40    22    23   ar
    41    23    18   ar
    42    41    32    1
    43    11     2    1
    44    30    25   ar
    45    39    34   ar
    46    11     6   ar
    47    41    42    1
@<TRIPOS>MOLECULE
*****
 42 47 0 0 0
SMALL
GASTEIGER

@<TRIPOS>ATOM
      1 N          61.5749   87.9240   10.9282 N.3     1  UNL1       -0.2679
      2 C          60.8089   87.4564    9.7263 C.3     1  UNL1        0.0978
      3 C          59.4259   87.9770    9.4692 C.3     1  UNL1        0.0224
      4 C          58.6599   87.5094    8.2673 C.3     1  UNL1        0.0065
      5 C          59.2770   86.5213    7.3224 C.3     1  UNL1        0.0277
      6 C          60.6600   86.0007    7.5795 C.ar    1  UNL1       -0.0073
      7 C          61.2772   85.0126    6.6346 C.ar    1  UNL1       -0.0015
      8 C          62.6602   84.4920    6.8917 C.ar    1  UNL1        0.0203
      9 C          63.4262   84.9595    8.0936 C.ar    1  UNL1        0.0985
     10 N          62.8091   85.9477    9.0385 N.ar    1  UNL1       -0.2471
     11 C          61.4260   86.4683    8.7814 C.ar    1  UNL1        0.0695
     12 C          62.5227   86.9917   11.6229 C.3     1  UNL1        0.0725
     13 C          62.0089   85.7291   12.2490 C.3     1  UNL1        0.0188
     14 C          62.6229   84.4091   11.8879 C.3     1  UNL1        0.0188
     15 C          64.0361   84.1047   12.2884 C.3     1  UNL1        0.0727
     16 N          64.4403   84.1828   13.7308 N.3     1  UNL1       -0.2651
     17 C          65.0685   85.4350   14.2670 C.3     1  UNL1        0.1009
     18 C          62.9158   86.5307   17.4158 C.ar    1  UNL1        0.0204
     19 C          62.8144   88.0100   17.1890 C.ar    1  UNL1        0.0989
     20 N          63.4644   88.6309   15.9882 N.ar    1  UNL1       -0.2426
     21 C          64.2157   87.7726   15.0142 C.ar    1  UNL1        0.0959
     22 C          64.3171   86.2934   15.2410 C.ar    1  UNL1        0.0131
     23 C          63.6671   85.6724   16.4418 C.ar    1  UNL1        0.0002
     24 C          64.2162   83.0087   14.6371 C.3     1  UNL1        0.1009
     25 C          63.2238   81.9490   14.2602 C.ar    1  UNL1        0.0131
     26 C          61.7659   82.1493   14.5506 C.ar    1  UNL1        0.0002
     27 C          60.7736   81.0896   14.1736 C.ar    1  UNL1        0.0204
     28 C          61.2391   79.8295   13.5063 C.ar    1  UNL1        0.0989
     29 N          62.6970   79.6291   13.2158 N.ar    1  UNL1       -0.2426
     30 C          63.6893   80.6888   13.5928 C.ar    1  UNL1        0.0959
     31 C          61.3931   89.3238   11.4356 C.3     1  UNL1        0.0886
     32 C          62.5816   90.2261   11.5894 C.3     1  UNL1        0.0748
     33 C          63.2816   90.3254   12.9122 C.3     1  UNL1        0.0432
     34 C          64.4700   91.2277   13.0660 C.ar    1  UNL1       -0.0234
     35 C          65.1701   91.3270   14.3889 C.ar    1  UNL1       -0.0045
     36 C          66.3584   92.2293   14.5426 C.ar    1  UNL1       -0.0003
     37 C          66.8467   93.0322   13.3735 C.ar    1  UNL1       -0.0003
     38 C          66.1467   92.9329   12.0506 C.ar    1  UNL1       -0.0032
     39 C          64.9583   92.0306   11.8969 C.ar    1  UNL1       -0.0103
     40 C          64.2582   91.9313   10.5740 C.3     1  UNL1        0.0953
     41 N          63.0699   91.0290   10.4202 N.3     1  UNL1       -0.2934
     42 H          63.2986   90.3641    9.6814 H       1  UNL1        0.1236
@<TRIPOS>BOND
     1    18    19   ar
     2    19    20   ar
     3    20    21   ar
     4    21    22   ar
     5    22    17    1
     6    17    16    1
     7    16    15    1
     8    15    14    1
     9    14    13    1
    10    13    12    1
    11    12     1    1
    12     1    31    1
    13    32    31    1
    14    32    33    1
    15    33    34    1
    16    34    35   ar
    17    35    36   ar
    18    36    37   ar
    19    37    38   ar
    20    38    39   ar
    21    39    40    1
    22    40    41    1
    23     2     1    1
    24     2     3    1
    25     3     4    1
    26     4     5    1
    27     5     6    1
    28     6     7   ar
    29     7     8   ar
    30     8     9   ar
    31     9    10   ar
    32    10    11   ar
    33    16    24    1
    34    24    25    1
    35    25    26   ar
    36    26    27   ar
    37    27    28   ar
    38    28    29   ar
    39    29    30   ar
    40    22    23   ar
    41    23    18   ar
    42    41    32    1
    43    11     2    1
    44    30    25   ar
    45    39    34   ar
    46    11     6   ar
    47    41    42    1
@<TRIPOS>MOLECULE
*****
 42 47 0 0 0
SMALL
GASTEIGER

@<TRIPOS>ATOM
      1 N          61.5113   87.8998   10.9100 N.3     1  UNL1       -0.2679
      2 C          60.7584   87.4095    9.7089 C.3     1  UNL1        0.0978
      3 C          59.3647   87.8980    9.4465 C.3     1  UNL1        0.0224
      4 C          58.6117   87.4077    8.2454 C.3     1  UNL1        0.0065
      5 C          59.2525   86.4288    7.3067 C.3     1  UNL1        0.0277
      6 C          60.6462   85.9403    7.5691 C.ar    1  UNL1       -0.0073
      7 C          61.2870   84.9613    6.6304 C.ar    1  UNL1       -0.0015
      8 C          62.6807   84.4728    6.8928 C.ar    1  UNL1        0.0203
      9 C          63.4336   84.9631    8.0939 C.ar    1  UNL1        0.0985
     10 N          62.7929   85.9420    9.0326 N.ar    1  UNL1       -0.2471
     11 C          61.3991   86.4306    8.7702 C.ar    1  UNL1        0.0695
     12 C          62.5142   87.0093   11.5815 C.3     1  UNL1        0.0725
     13 C          62.0603   85.7628   12.2818 C.3     1  UNL1        0.0188
     14 C          62.6351   84.4328   11.8938 C.3     1  UNL1        0.0188
     15 C          64.0503   84.0929   12.2564 C.3     1  UNL1        0.0727
     16 N          64.4825   84.1150   13.6927 N.3     1  UNL1       -0.2651
     17 C          64.2963   82.8988   14.5507 C.3     1  UNL1        0.1009
     18 C          60.7795   81.0924   14.2052 C.ar    1  UNL1        0.0204
     19 C          61.1733   79.8428   13.4748 C.ar    1  UNL1        0.0989
     20 N          62.6080   79.6119   13.1031 N.ar    1  UNL1       -0.2426
     21 C          63.6490   80.6305   13.4617 C.ar    1  UNL1        0.0959
     22 C          63.2553   81.8801   14.1921 C.ar    1  UNL1        0.0131
     23 C          61.8205   82.1111   14.5638 C.ar    1  UNL1        0.0002
     24 C          65.1009   85.3532   14.2708 C.3     1  UNL1        0.1009
     25 C          64.3299   86.1907   15.2478 C.ar    1  UNL1        0.0131
     26 C          63.6590   85.5447   16.4236 C.ar    1  UNL1        0.0002
     27 C          62.8881   86.3821   17.4005 C.ar    1  UNL1        0.0204
     28 C          62.7881   87.8655   17.2015 C.ar    1  UNL1        0.0989
     29 N          63.4590   88.5115   16.0257 N.ar    1  UNL1       -0.2426
     30 C          64.2299   87.6740   15.0489 C.ar    1  UNL1        0.0959
     31 C          61.2613   89.2808   11.4396 C.3     1  UNL1        0.0886
     32 C          62.4085   90.1179   11.9226 C.3     1  UNL1        0.0748
     33 C          63.2307   90.9007   10.9423 C.3     1  UNL1        0.0432
     34 C          64.3779   91.7379   11.4253 C.ar    1  UNL1       -0.0234
     35 C          65.2001   92.5207   10.4450 C.ar    1  UNL1       -0.0045
     36 C          66.3472   93.3578   10.9280 C.ar    1  UNL1       -0.0003
     37 C          66.6722   93.4120   12.3914 C.ar    1  UNL1       -0.0003
     38 C          65.8500   92.6291   13.3717 C.ar    1  UNL1       -0.0032
     39 C          64.7029   91.7921   12.8887 C.ar    1  UNL1       -0.0103
     40 C          63.8806   91.0092   13.8690 C.3     1  UNL1        0.0953
     41 N          62.7335   90.1721   13.3860 N.3     1  UNL1       -0.2934
     42 H          61.8983   90.5152   13.8605 H       1  UNL1        0.1236
@<TRIPOS>BOND
     1    18    19   ar
     2    19    20   ar
     3    20    21   ar
     4    21    22   ar
     5    22    17    1
     6    17    16    1
     7    16    15    1
     8    15    14    1
     9    14    13    1
    10    13    12    1
    11    12     1    1
    12     1    31    1
    13    32    31    1
    14    32    33    1
    15    33    34    1
    16    34    35   ar
    17    35    36   ar
    18    36    37   ar
    19    37    38   ar
    20    38    39   ar
    21    39    40    1
    22    40    41    1
    23     2     1    1
    24     2     3    1
    25     3     4    1
    26     4     5    1
    27     5     6    1
    28     6     7   ar
    29     7     8   ar
    30     8     9   ar
    31     9    10   ar
    32    10    11   ar
    33    16    24    1
    34    24    25    1
    35    25    26   ar
    36    26    27   ar
    37    27    28   ar
    38    28    29   ar
    39    29    30   ar
    40    22    23   ar
    41    23    18   ar
    42    41    32    1
    43    11     2    1
    44    30    25   ar
    45    39    34   ar
    46    11     6   ar
    47    41    42    1
@<TRIPOS>MOLECULE
*****
 42 47 0 0 0
SMALL
GASTEIGER

@<TRIPOS>ATOM
      1 N          62.9942   90.7098   12.3630 N.3     1  UNL1       -0.2679
      2 C          64.2264   91.5295   12.1190 C.3     1  UNL1        0.0978
      3 C          64.6350   91.8702   10.7166 C.3     1  UNL1        0.0224
      4 C          65.8673   92.6900   10.4726 C.3     1  UNL1        0.0065
      5 C          66.6910   93.1689   11.6310 C.3     1  UNL1        0.0277
      6 C          66.2824   92.8282   13.0335 C.ar    1  UNL1       -0.0073
      7 C          67.1061   93.3072   14.1920 C.ar    1  UNL1       -0.0015
      8 C          66.6975   92.9665   15.5944 C.ar    1  UNL1        0.0203
      9 C          65.4652   92.1467   15.8384 C.ar    1  UNL1        0.0985
     10 N          64.6415   91.6678   14.6800 N.ar    1  UNL1       -0.2471
     11 C          65.0501   92.0085   13.2775 C.ar    1  UNL1        0.0695
     12 C          62.9575   89.7304   13.4985 C.3     1  UNL1        0.0725
     13 C          63.9549   88.6114   13.5563 C.3     1  UNL1        0.0188
     14 C          64.2276   87.9163   14.8572 C.3     1  UNL1        0.0188
     15 C          64.5906   86.4609   14.8681 C.3     1  UNL1        0.0727
     16 N          63.6115   85.4399   14.3691 N.3     1  UNL1       -0.2651
     17 C          63.1541   85.4747   12.9410 C.3     1  UNL1        0.1009
     18 C          62.4470   82.3690   10.5736 C.ar    1  UNL1        0.0204
     19 C          63.8456   81.9201   10.2696 C.ar    1  UNL1        0.0989
     20 N          65.0137   82.6561   10.8561 N.ar    1  UNL1       -0.2426
     21 C          64.7832   83.8409   11.7465 C.ar    1  UNL1        0.0959
     22 C          63.3846   84.2898   12.0505 C.ar    1  UNL1        0.0131
     23 C          62.2165   83.5539   11.4640 C.ar    1  UNL1        0.0002
     24 C          63.0900   84.3841   15.2982 C.3     1  UNL1        0.1009
     25 C          62.8662   82.9881   14.7971 C.ar    1  UNL1        0.0131
     26 C          61.4699   82.4779   14.5968 C.ar    1  UNL1        0.0002
     27 C          61.2461   81.0820   14.0957 C.ar    1  UNL1        0.0204
     28 C          62.4187   80.1962   13.7948 C.ar    1  UNL1        0.0989
     29 N          63.8149   80.7063   13.9950 N.ar    1  UNL1       -0.2426
     30 C          64.0387   82.1023   14.4962 C.ar    1  UNL1        0.0959
     31 C          61.7985   90.8694   11.4715 C.3     1  UNL1        0.0886
     32 C          61.4133   89.7679   10.5289 C.3     1  UNL1        0.0748
     33 C          62.3517   88.6223   10.2906 C.3     1  UNL1        0.0432
     34 C          61.9665   87.5208    9.3481 C.ar    1  UNL1       -0.0234
     35 C          62.9050   86.3751    9.1098 C.ar    1  UNL1       -0.0045
     36 C          62.5197   85.2737    8.1673 C.ar    1  UNL1       -0.0003
     37 C          61.1961   85.3179    7.4630 C.ar    1  UNL1       -0.0003
     38 C          60.2577   86.4636    7.7012 C.ar    1  UNL1       -0.0032
     39 C          60.6429   87.5650    8.6438 C.ar    1  UNL1       -0.0103
     40 C          59.7044   88.7107    8.8821 C.3     1  UNL1        0.0953
     41 N          60.0896   89.8121    9.8246 N.3     1  UNL1       -0.2934
     42 H          59.3719   89.8446   10.5486 H       1  UNL1        0.1236
@<TRIPOS>BOND
     1    18    19   ar
     2    19    20   ar
     3    20    21   ar
     4    21    22   ar
     5    22    17    1
     6    17    16    1
     7    16    15    1
     8    15    14    1
     9    14    13    1
    10    13    12    1
    11    12     1    1
    12     1    31    1
    13    32    31    1
    14    32    33    1
    15    33    34    1
    16    34    35   ar
    17    35    36   ar
    18    36    37   ar
    19    37    38   ar
    20    38    39   ar
    21    39    40    1
    22    40    41    1
    23     2     1    1
    24     2     3    1
    25     3     4    1
    26     4     5    1
    27     5     6    1
    28     6     7   ar
    29     7     8   ar
    30     8     9   ar
    31     9    10   ar
    32    10    11   ar
    33    16    24    1
    34    24    25    1
    35    25    26   ar
    36    26    27   ar
    37    27    28   ar
    38    28    29   ar
    39    29    30   ar
    40    22    23   ar
    41    23    18   ar
    42    41    32    1
    43    11     2    1
    44    30    25   ar
    45    39    34   ar
    46    11     6   ar
    47    41    42    1
@<TRIPOS>MOLECULE
*****
 42 47 0 0 0
SMALL
GASTEIGER

@<TRIPOS>ATOM
      1 N          62.7673   90.5344   11.8197 N.3     1  UNL1       -0.2679
      2 C          63.9819   91.4146   11.8192 C.3     1  UNL1        0.0978
      3 C          64.5300   91.9357   10.5239 C.3     1  UNL1        0.0224
      4 C          65.7445   92.8160   10.5234 C.3     1  UNL1        0.0065
      5 C          66.4110   93.1751   11.8183 C.3     1  UNL1        0.0277
      6 C          65.8630   92.6539   13.1137 C.ar    1  UNL1       -0.0073
      7 C          66.5295   93.0130   14.4086 C.ar    1  UNL1       -0.0015
      8 C          65.9814   92.4918   15.7040 C.ar    1  UNL1        0.0203
      9 C          64.7668   91.6116   15.7044 C.ar    1  UNL1        0.0985
     10 N          64.1003   91.2525   14.4096 N.ar    1  UNL1       -0.2471
     11 C          64.6484   91.7737   13.1141 C.ar    1  UNL1        0.0695
     12 C          62.6136   89.4689   12.8643 C.3     1  UNL1        0.0725
     13 C          63.4689   88.2377   12.8114 C.3     1  UNL1        0.0188
     14 C          62.9890   87.0222   12.0752 C.3     1  UNL1        0.0188
     15 C          62.8168   85.7229   12.8046 C.3     1  UNL1        0.0727
     16 N          64.0137   85.0128   13.3645 N.3     1  UNL1       -0.2651
     17 C          64.5249   83.7679   12.7021 C.3     1  UNL1        0.1009
     18 C          62.6718   80.3738   11.8098 C.ar    1  UNL1        0.0204
     19 C          62.2956   79.8880   13.1781 C.ar    1  UNL1        0.0989
     20 N          62.6625   80.6955   14.3878 N.ar    1  UNL1       -0.2426
     21 C          63.4056   81.9888   14.2292 C.ar    1  UNL1        0.0959
     22 C          63.7818   82.4746   12.8608 C.ar    1  UNL1        0.0131
     23 C          63.4149   81.6671   11.6511 C.ar    1  UNL1        0.0002
     24 C          64.6993   85.5477   14.5867 C.3     1  UNL1        0.1009
     25 C          63.8895   86.1376   15.7032 C.ar    1  UNL1        0.0131
     26 C          63.9309   87.6148   15.9603 C.ar    1  UNL1        0.0002
     27 C          63.1211   88.2047   17.0767 C.ar    1  UNL1        0.0204
     28 C          62.2701   87.3174   17.9360 C.ar    1  UNL1        0.0989
     29 N          62.2288   85.8402   17.6789 N.ar    1  UNL1       -0.2426
     30 C          63.0385   85.2503   16.5625 C.ar    1  UNL1        0.0959
     31 C          61.7065   90.7195   10.7756 C.3     1  UNL1        0.0886
     32 C          61.2938   89.5642    9.9124 C.3     1  UNL1        0.0748
     33 C          62.2350   88.4167    9.6950 C.3     1  UNL1        0.0432
     34 C          61.8224   87.2613    8.8318 C.ar    1  UNL1       -0.0234
     35 C          62.7636   86.1139    8.6144 C.ar    1  UNL1       -0.0045
     36 C          62.3509   84.9586    7.7513 C.ar    1  UNL1       -0.0003
     37 C          60.9970   84.9508    7.1056 C.ar    1  UNL1       -0.0003
     38 C          60.0558   86.0983    7.3231 C.ar    1  UNL1       -0.0032
     39 C          60.4685   87.2535    8.1862 C.ar    1  UNL1       -0.0103
     40 C          59.5272   88.4011    8.4037 C.3     1  UNL1        0.0953
     41 N          59.9399   89.5564    9.2668 N.3     1  UNL1       -0.2934
     42 H          59.2544   89.6213   10.0193 H       1  UNL1        0.1236
@<TRIPOS>BOND
     1    18    19   ar
     2    19    20   ar
     3    20    21   ar
     4    21    22   ar
     5    22    17    1
     6    17    16    1
     7    16    15    1
     8    15    14    1
     9    14    13    1
    10    13    12    1
    11    12     1    1
    12     1    31    1
    13    32    31    1
    14    32    33    1
    15    33    34    1
    16    34    35   ar
    17    35    36   ar
    18    36    37   ar
    19    37    38   ar
    20    38    39   ar
    21    39    40    1
    22    40    41    1
    23     2     1    1
    24     2     3    1
    25     3     4    1
    26     4     5    1
    27     5     6    1
    28     6     7   ar
    29     7     8   ar
    30     8     9   ar
    31     9    10   ar
    32    10    11   ar
    33    16    24    1
    34    24    25    1
    35    25    26   ar
    36    26    27   ar
    37    27    28   ar
    38    28    29   ar
    39    29    30   ar
    40    22    23   ar
    41    23    18   ar
    42    41    32    1
    43    11     2    1
    44    30    25   ar
    45    39    34   ar
    46    11     6   ar
    47    41    42    1
@<TRIPOS>MOLECULE
*****
 42 47 0 0 0
SMALL
GASTEIGER

@<TRIPOS>ATOM
      1 N          61.9144   87.4544   11.1592 N.3     1  UNL1       -0.2679
      2 C          61.0278   87.1737    9.9823 C.3     1  UNL1        0.0978
      3 C          59.6582   87.7814    9.9131 C.3     1  UNL1        0.0224
      4 C          58.7717   87.5007    8.7362 C.3     1  UNL1        0.0065
      5 C          59.2547   86.6122    7.6284 C.3     1  UNL1        0.0277
      6 C          60.6243   86.0044    7.6975 C.ar    1  UNL1       -0.0073
      7 C          61.1074   85.1159    6.5897 C.ar    1  UNL1       -0.0015
      8 C          62.4769   84.5082    6.6589 C.ar    1  UNL1        0.0203
      9 C          63.3635   84.7889    7.8358 C.ar    1  UNL1        0.0985
     10 N          62.8805   85.6774    8.9436 N.ar    1  UNL1       -0.2471
     11 C          61.5108   86.2852    8.8745 C.ar    1  UNL1        0.0695
     12 C          61.6736   88.6682   12.0069 C.3     1  UNL1        0.0725
     13 C          61.9559   90.0350   11.4572 C.3     1  UNL1        0.0188
     14 C          63.3350   90.6156   11.5623 C.3     1  UNL1        0.0188
     15 C          63.7552   91.3282   12.8135 C.3     1  UNL1        0.0727
     16 N          64.3942   90.5626   13.9341 N.3     1  UNL1       -0.2651
     17 C          64.9345   91.2919   15.1283 C.3     1  UNL1        0.1009
     18 C          68.1897   93.2968   16.1932 C.ar    1  UNL1        0.0204
     19 C          69.0741   93.0522   15.0066 C.ar    1  UNL1        0.0989
     20 N          68.5787   92.2208   13.8606 N.ar    1  UNL1       -0.2426
     21 C          67.1988   91.6341   13.9011 C.ar    1  UNL1        0.0959
     22 C          66.3144   91.8787   15.0877 C.ar    1  UNL1        0.0131
     23 C          66.8099   92.7100   16.2337 C.ar    1  UNL1        0.0002
     24 C          64.4928   89.0677   13.8604 C.3     1  UNL1        0.1009
     25 C          64.0496   88.2286   15.0222 C.ar    1  UNL1        0.0131
     26 C          63.2544   88.8469   16.1337 C.ar    1  UNL1        0.0002
     27 C          62.8112   88.0078   17.2954 C.ar    1  UNL1        0.0204
     28 C          63.1631   86.5506   17.3455 C.ar    1  UNL1        0.0989
     29 N          63.9583   85.9323   16.2341 N.ar    1  UNL1       -0.2426
     30 C          64.4015   86.7714   15.0724 C.ar    1  UNL1        0.0959
     31 C          63.0418   86.5213   11.4884 C.3     1  UNL1        0.0886
     32 C          62.7617   85.2237   12.1870 C.3     1  UNL1        0.0748
     33 C          63.0108   83.9234   11.4820 C.3     1  UNL1        0.0432
     34 C          62.7308   82.6258   12.1806 C.ar    1  UNL1       -0.0234
     35 C          62.9798   81.3255   11.4755 C.ar    1  UNL1       -0.0045
     36 C          62.6998   80.0280   12.1741 C.ar    1  UNL1       -0.0003
     37 C          62.1707   80.0309   13.5777 C.ar    1  UNL1       -0.0003
     38 C          61.9217   81.3312   14.2827 C.ar    1  UNL1       -0.0032
     39 C          62.2017   82.6287   13.5842 C.ar    1  UNL1       -0.0103
     40 C          61.9527   83.9291   14.2892 C.3     1  UNL1        0.0953
     41 N          62.2327   85.2266   13.5906 N.3     1  UNL1       -0.2934
     42 H          62.9142   85.7271   14.1611 H       1  UNL1        0.1236
@<TRIPOS>BOND
     1    18    19   ar
     2    19    20   ar
     3    20    21   ar
     4    21    22   ar
     5    22    17    1
     6    17    16    1
     7    16    15    1
     8    15    14    1
     9    14    13    1
    10    13    12    1
    11    12     1    1
    12     1    31    1
    13    32    31    1
    14    32    33    1
    15    33    34    1
    16    34    35   ar
    17    35    36   ar
    18    36    37   ar
    19    37    38   ar
    20    38    39   ar
    21    39    40    1
    22    40    41    1
    23     2     1    1
    24     2     3    1
    25     3     4    1
    26     4     5    1
    27     5     6    1
    28     6     7   ar
    29     7     8   ar
    30     8     9   ar
    31     9    10   ar
    32    10    11   ar
    33    16    24    1
    34    24    25    1
    35    25    26   ar
    36    26    27   ar
    37    27    28   ar
    38    28    29   ar
    39    29    30   ar
    40    22    23   ar
    41    23    18   ar
    42    41    32    1
    43    11     2    1
    44    30    25   ar
    45    39    34   ar
    46    11     6   ar
    47    41    42    1
@<TRIPOS>MOLECULE
*****
 42 47 0 0 0
SMALL
GASTEIGER

@<TRIPOS>ATOM
      1 N          62.7754   90.5234   11.8195 N.3     1  UNL1       -0.2679
      2 C          63.9811   91.4157   11.8349 C.3     1  UNL1        0.0978
      3 C          64.5250   91.9638   10.5490 C.3     1  UNL1        0.0224
      4 C          65.7307   92.8560   10.5644 C.3     1  UNL1        0.0065
      5 C          66.3924   93.2002   11.8658 C.3     1  UNL1        0.0277
      6 C          65.8485   92.6521   13.1517 C.ar    1  UNL1       -0.0073
      7 C          66.5102   92.9963   14.4532 C.ar    1  UNL1       -0.0015
      8 C          65.9662   92.4482   15.7391 C.ar    1  UNL1        0.0203
      9 C          64.7606   91.5559   15.7237 C.ar    1  UNL1        0.0985
     10 N          64.0989   91.2117   14.4223 N.ar    1  UNL1       -0.2471
     11 C          64.6428   91.7598   13.1363 C.ar    1  UNL1        0.0695
     12 C          62.6254   89.4474   12.8537 C.3     1  UNL1        0.0725
     13 C          63.5095   88.2364   12.8099 C.3     1  UNL1        0.0188
     14 C          63.0538   87.0008   12.0918 C.3     1  UNL1        0.0188
     15 C          62.7487   85.7529   12.8662 C.3     1  UNL1        0.0727
     16 N          63.8673   84.9292   13.4324 N.3     1  UNL1       -0.2651
     17 C          64.6047   85.4017   14.6501 C.3     1  UNL1        0.1009
     18 C          63.1995   88.2885   16.9828 C.ar    1  UNL1        0.0204
     19 C          62.3813   87.4932   17.9565 C.ar    1  UNL1        0.0989
     20 N          62.3043   86.0007   17.8280 N.ar    1  UNL1       -0.2426
     21 C          63.0454   85.3035   16.7259 C.ar    1  UNL1        0.0959
     22 C          63.8635   86.0989   15.7523 C.ar    1  UNL1        0.0131
     23 C          63.9406   87.5914   15.8807 C.ar    1  UNL1        0.0002
     24 C          64.2483   83.6330   12.7807 C.3     1  UNL1        0.1009
     25 C          63.4073   82.4096   12.9960 C.ar    1  UNL1        0.0131
     26 C          62.4259   82.3641   14.1294 C.ar    1  UNL1        0.0002
     27 C          61.5850   81.1408   14.3446 C.ar    1  UNL1        0.0204
     28 C          61.7255   79.9630   13.4264 C.ar    1  UNL1        0.0989
     29 N          62.7069   80.0086   12.2929 N.ar    1  UNL1       -0.2426
     30 C          63.5478   81.2319   12.0777 C.ar    1  UNL1        0.0959
     31 C          61.7198   90.7071   10.7698 C.3     1  UNL1        0.0886
     32 C          61.3157   89.5520    9.9022 C.3     1  UNL1        0.0748
     33 C          62.2541   88.3988    9.7039 C.3     1  UNL1        0.0432
     34 C          61.8500   87.2437    8.8363 C.ar    1  UNL1       -0.0234
     35 C          62.7883   86.0904    8.6380 C.ar    1  UNL1       -0.0045
     36 C          62.3842   84.9354    7.7704 C.ar    1  UNL1       -0.0003
     37 C          61.0418   84.9337    7.1012 C.ar    1  UNL1       -0.0003
     38 C          60.1034   86.0870    7.2995 C.ar    1  UNL1       -0.0032
     39 C          60.5075   87.2420    8.1671 C.ar    1  UNL1       -0.0103
     40 C          59.5692   88.3954    8.3655 C.3     1  UNL1        0.0953
     41 N          59.9733   89.5504    9.2330 N.3     1  UNL1       -0.2934
     42 H          59.2751   89.6209    9.9733 H       1  UNL1        0.1236
@<TRIPOS>BOND
     1    18    19   ar
     2    19    20   ar
     3    20    21   ar
     4    21    22   ar
     5    22    17    1
     6    17    16    1
     7    16    15    1
     8    15    14    1
     9    14    13    1
    10    13    12    1
    11    12     1    1
    12     1    31    1
    13    32    31    1
    14    32    33    1
    15    33    34    1
    16    34    35   ar
    17    35    36   ar
    18    36    37   ar
    19    37    38   ar
    20    38    39   ar
    21    39    40    1
    22    40    41    1
    23     2     1    1
    24     2     3    1
    25     3     4    1
    26     4     5    1
    27     5     6    1
    28     6     7   ar
    29     7     8   ar
    30     8     9   ar
    31     9    10   ar
    32    10    11   ar
    33    16    24    1
    34    24    25    1
    35    25    26   ar
    36    26    27   ar
    37    27    28   ar
    38    28    29   ar
    39    29    30   ar
    40    22    23   ar
    41    23    18   ar
    42    41    32    1
    43    11     2    1
    44    30    25   ar
    45    39    34   ar
    46    11     6   ar
    47    41    42    1
