@<TRIPOS>MOLECULE
*****
 35 37 0 0 0
SMALL
GASTEIGER

@<TRIPOS>ATOM
      1 C          63.7165   90.1116   15.0195 C.3     1  UNL1        0.0899
      2 C          62.5020   89.2539   12.8889 C.2     1  UNL1        0.4014
      3 O          63.4517   88.0953   12.8140 O.2     1  UNL1       -0.2264
      4 N          62.6344   90.2620   13.9917 N.am    1  UNL1       -0.2711
      5 H          62.0111   91.0225   14.0408 H       1  UNL1        0.1527
      6 O          61.4199   89.4043   11.8611 O.3     1  UNL1       -0.4419
      7 C          62.4941   89.5715   10.0396 C.3     1  UNL1        0.0437
      8 C          61.4793   88.6129   10.5883 C.3     1  UNL1        0.1378
      9 C          60.4644   87.6543   11.1370 C.3     1  UNL1        0.0437
     10 C          61.5387   87.8216    9.3154 C.3     1  UNL1        0.0437
     11 C          63.3613   89.7897   16.4408 C.3     1  UNL1        0.0775
     12 S          63.0279   88.3799   16.8296 S.3     1  UNL1       -0.1380
     13 C          63.6582   87.2314   16.0990 C.3     1  UNL1        0.0672
     14 C          63.3327   85.8215   16.4945 C.3     1  UNL1        0.0967
     15 C          63.5210   84.7043   15.5114 C.2     1  UNL1        0.2236
     16 O          64.8887   84.3981   14.9771 O.2     1  UNL1       -0.2751
     17 N          62.3416   83.8935   15.0627 N.am    1  UNL1       -0.3004
     18 H          61.4439   84.0945   15.4134 H       1  UNL1        0.1497
     19 C          62.5299   82.7763   14.0797 C.3     1  UNL1        0.1179
     20 C          63.0046   83.0737   12.6881 C.ar    1  UNL1        0.0166
     21 C          62.4717   84.2678   11.9531 C.ar    1  UNL1        0.0005
     22 C          62.9464   84.5652   10.5617 C.ar    1  UNL1        0.0204
     23 C          63.9539   83.6686    9.9052 C.ar    1  UNL1        0.0989
     24 N          64.4868   82.4745   10.6402 N.ar    1  UNL1       -0.2426
     25 C          64.0121   82.1771   12.0316 C.ar    1  UNL1        0.0962
     26 C          65.1538   90.2831   14.6259 C.3     1  UNL1        0.0485
     27 C          65.6842   91.6475   14.2988 C.2     1  UNL1       -0.0003
     28 C          66.4210   92.5557   15.2381 C.2     1  UNL1        0.0942
     29 N          66.7630   93.8127   14.4946 N.2     1  UNL1       -0.2482
     30 C          66.2375   93.6816   13.0958 C.2     1  UNL1        0.0631
     31 C          66.2800   94.6078   11.9167 C.3     1  UNL1        0.0717
     32 C          65.6557   94.1957   10.6166 C.2     1  UNL1       -0.0198
     33 C          64.9889   92.8575   10.4955 C.2     1  UNL1       -0.0042
     34 C          64.9465   91.9314   11.6746 C.2     1  UNL1        0.0006
     35 C          65.5707   92.3434   12.9748 C.2     1  UNL1        0.0115
@<TRIPOS>BOND
     1     7     8    1
     2     8     9    1
     3     8    10    1
     4     8     6    1
     5     6     2    1
     6     2     3    2
     7     2     4   am
     8     4     1    1
     9     1    11    1
    10    11    12    1
    11    12    13    1
    12    13    14    1
    13    14    15    1
    14    15    16    2
    15    15    17   am
    16    17    19    1
    17    19    20    1
    18    20    21   ar
    19    21    22   ar
    20    22    23   ar
    21    23    24   ar
    22    24    25   ar
    23     1    26    1
    24    26    27    1
    25    27    28    2
    26    28    29    1
    27    29    30    2
    28    30    31    1
    29    31    32    1
    30    32    33    2
    31    33    34    1
    32    34    35    2
    33    25    20   ar
    34    35    27    1
    35    35    30    1
    36     4     5    1
    37    17    18    1
@<TRIPOS>MOLECULE
*****
 35 37 0 0 0
SMALL
GASTEIGER

@<TRIPOS>ATOM
      1 C          63.8589   90.7001   12.8832 C.3     1  UNL1        0.0899
      2 C          65.9630   92.2241   12.8655 C.2     1  UNL1        0.4014
      3 O          66.5727   91.3949   13.9567 O.2     1  UNL1       -0.2264
      4 N          64.6061   91.8767   12.3288 N.am    1  UNL1       -0.2711
      5 H          64.2059   92.4209   11.6126 H       1  UNL1        0.1527
      6 O          66.7102   93.4007   12.3111 O.3     1  UNL1       -0.4419
      7 C          67.5791   92.3499   10.6860 C.3     1  UNL1        0.0437
      8 C          66.7817   93.6125   10.8279 C.3     1  UNL1        0.1378
      9 C          65.9843   94.8750   10.9697 C.3     1  UNL1        0.0437
     10 C          66.8532   93.8242    9.3446 C.3     1  UNL1        0.0437
     11 C          63.4469   90.6852   14.3255 C.3     1  UNL1        0.0775
     12 S          63.7717   89.5004   15.1860 S.3     1  UNL1       -0.1380
     13 C          62.9382   89.2019   16.3968 C.3     1  UNL1        0.0672
     14 C          63.1891   87.9543   17.1911 C.3     1  UNL1        0.0967
     15 C          62.5946   86.6505   16.7474 C.2     1  UNL1        0.2236
     16 O          61.2140   86.2663   17.1905 O.2     1  UNL1       -0.2751
     17 N          63.3808   85.7310   15.8606 N.am    1  UNL1       -0.3004
     18 H          64.2869   85.9832   15.5698 H       1  UNL1        0.1497
     19 C          62.7863   84.4273   15.4169 C.3     1  UNL1        0.1179
     20 C          63.1557   83.8500   14.0826 C.ar    1  UNL1        0.0166
     21 C          62.8557   84.6128   12.8263 C.ar    1  UNL1        0.0005
     22 C          63.2252   84.0355   11.4921 C.ar    1  UNL1        0.0204
     23 C          63.8946   82.6954   11.4141 C.ar    1  UNL1        0.0989
     24 N          64.1945   81.9326   12.6703 N.ar    1  UNL1       -0.2426
     25 C          63.8251   82.5099   14.0045 C.ar    1  UNL1        0.0962
     26 C          63.5237   89.5384   11.9954 C.3     1  UNL1        0.0485
     27 C          62.2619   89.5537   11.1845 C.2     1  UNL1       -0.0003
     28 C          61.2337   90.6458   11.1743 C.2     1  UNL1        0.0942
     29 N          60.1431   90.2467   10.2249 N.2     1  UNL1       -0.2482
     30 C          60.4973   88.9079    9.6484 C.2     1  UNL1        0.0631
     31 C          59.7966   88.0236    8.6600 C.3     1  UNL1        0.0717
     32 C          60.4055   86.7110    8.2647 C.2     1  UNL1       -0.0198
     33 C          61.7150   86.2827    8.8577 C.2     1  UNL1       -0.0042
     34 C          62.4157   87.1671    9.8461 C.2     1  UNL1        0.0006
     35 C          61.8068   88.4797   10.2414 C.2     1  UNL1        0.0115
@<TRIPOS>BOND
     1     7     8    1
     2     8     9    1
     3     8    10    1
     4     8     6    1
     5     6     2    1
     6     2     3    2
     7     2     4   am
     8     4     1    1
     9     1    11    1
    10    11    12    1
    11    12    13    1
    12    13    14    1
    13    14    15    1
    14    15    16    2
    15    15    17   am
    16    17    19    1
    17    19    20    1
    18    20    21   ar
    19    21    22   ar
    20    22    23   ar
    21    23    24   ar
    22    24    25   ar
    23     1    26    1
    24    26    27    1
    25    27    28    2
    26    28    29    1
    27    29    30    2
    28    30    31    1
    29    31    32    1
    30    32    33    2
    31    33    34    1
    32    34    35    2
    33    25    20   ar
    34    35    27    1
    35    35    30    1
    36     4     5    1
    37    17    18    1
@<TRIPOS>MOLECULE
*****
 35 37 0 0 0
SMALL
GASTEIGER

@<TRIPOS>ATOM
      1 C          64.1387   91.0321   12.2510 C.3     1  UNL1        0.0899
      2 C          65.6038   93.0984   11.6732 C.2     1  UNL1        0.4014
      3 O          65.8069   93.3633   13.1356 O.2     1  UNL1       -0.2264
      4 N          64.7698   91.9328   11.2310 N.am    1  UNL1       -0.2711
      5 H          64.6365   91.7590   10.2711 H       1  UNL1        0.1527
      6 O          66.2349   93.9991   10.6532 O.3     1  UNL1       -0.4419
      7 C          67.1103   94.6194    8.8232 C.3     1  UNL1        0.0437
      8 C          67.3359   93.4824    9.7753 C.3     1  UNL1        0.1378
      9 C          67.5615   92.3455   10.7273 C.3     1  UNL1        0.0437
     10 C          68.4369   92.9659    8.8973 C.3     1  UNL1        0.0437
     11 C          62.7040   90.6202   12.1026 C.3     1  UNL1        0.0775
     12 S          62.3659   89.2541   11.5835 S.3     1  UNL1       -0.1380
     13 C          60.9582   88.9337   11.1764 C.3     1  UNL1        0.0672
     14 C          60.5322   87.5051   11.0100 C.3     1  UNL1        0.0967
     15 C          61.5646   86.4274   10.8586 C.2     1  UNL1        0.2236
     16 O          62.1166   86.1028    9.5022 O.2     1  UNL1       -0.2751
     17 N          62.0449   85.6744   12.0637 N.am    1  UNL1       -0.3004
     18 H          61.6826   85.8875   12.9540 H       1  UNL1        0.1497
     19 C          63.0772   84.5968   11.9123 C.3     1  UNL1        0.1179
     20 C          62.8489   83.2477   12.5273 C.ar    1  UNL1        0.0166
     21 C          62.9669   82.0108   11.6870 C.ar    1  UNL1        0.0005
     22 C          62.7386   80.6618   12.3019 C.ar    1  UNL1        0.0204
     23 C          62.3923   80.5498   13.7571 C.ar    1  UNL1        0.0989
     24 N          62.2744   81.7867   14.5974 N.ar    1  UNL1       -0.2426
     25 C          62.5027   83.1356   13.9824 C.ar    1  UNL1        0.0962
     26 C          64.9424   90.5433   13.4195 C.3     1  UNL1        0.0485
     27 C          64.2555   90.1785   14.7021 C.2     1  UNL1       -0.0003
     28 C          63.6750   91.1404   15.6960 C.2     1  UNL1        0.0942
     29 N          63.0892   90.3440   16.8241 N.2     1  UNL1       -0.2482
     30 C          63.3077   88.8899   16.5275 C.2     1  UNL1        0.0631
     31 C          62.9434   87.6459   17.2821 C.3     1  UNL1        0.0717
     32 C          63.2999   86.2995   16.7253 C.2     1  UNL1       -0.0198
     33 C          64.0207   86.1972   15.4138 C.2     1  UNL1       -0.0042
     34 C          64.3850   87.4413   14.6592 C.2     1  UNL1        0.0006
     35 C          64.0285   88.7876   15.2160 C.2     1  UNL1        0.0115
@<TRIPOS>BOND
     1     7     8    1
     2     8     9    1
     3     8    10    1
     4     8     6    1
     5     6     2    1
     6     2     3    2
     7     2     4   am
     8     4     1    1
     9     1    11    1
    10    11    12    1
    11    12    13    1
    12    13    14    1
    13    14    15    1
    14    15    16    2
    15    15    17   am
    16    17    19    1
    17    19    20    1
    18    20    21   ar
    19    21    22   ar
    20    22    23   ar
    21    23    24   ar
    22    24    25   ar
    23     1    26    1
    24    26    27    1
    25    27    28    2
    26    28    29    1
    27    29    30    2
    28    30    31    1
    29    31    32    1
    30    32    33    2
    31    33    34    1
    32    34    35    2
    33    25    20   ar
    34    35    27    1
    35    35    30    1
    36     4     5    1
    37    17    18    1
@<TRIPOS>MOLECULE
*****
 35 37 0 0 0
SMALL
GASTEIGER

@<TRIPOS>ATOM
      1 C          64.7028   91.8017   12.7077 C.3     1  UNL1        0.0899
      2 C          66.3073   93.2852   11.3024 C.2     1  UNL1        0.4014
      3 O          66.3952   92.2064   10.2640 O.2     1  UNL1       -0.2264
      4 N          65.4610   93.0828   12.5243 N.am    1  UNL1       -0.2711
      5 H          65.4033   93.7909   13.2058 H       1  UNL1        0.1527
      6 O          67.0655   94.5664   11.1190 O.3     1  UNL1       -0.4419
      7 C          65.6746   96.1028   10.6666 C.3     1  UNL1        0.0437
      8 C          66.7945   95.4341    9.9259 C.3     1  UNL1        0.1378
      9 C          67.9143   94.7654    9.1851 C.3     1  UNL1        0.0437
     10 C          66.5233   96.3018    8.7328 C.3     1  UNL1        0.0437
     11 C          63.4130   91.5819   11.9741 C.3     1  UNL1        0.0775
     12 S          63.0192   90.1989   11.5473 S.3     1  UNL1       -0.1380
     13 C          61.5724   89.8614   11.3402 C.3     1  UNL1        0.0672
     14 C          61.0955   89.3976    9.9957 C.3     1  UNL1        0.0967
     15 C          61.0369   87.9312    9.6855 C.2     1  UNL1        0.2236
     16 O          59.7490   87.3119    9.2299 O.2     1  UNL1       -0.2751
     17 N          62.2663   87.0843    9.8310 N.am    1  UNL1       -0.3004
     18 H          63.1116   87.4908   10.1300 H       1  UNL1        0.1497
     19 C          62.2077   85.6178    9.5208 C.3     1  UNL1        0.1179
     20 C          62.9409   84.6379   10.3882 C.ar    1  UNL1        0.0166
     21 C          62.7825   84.6907   11.8788 C.ar    1  UNL1        0.0005
     22 C          63.5156   83.7107   12.7461 C.ar    1  UNL1        0.0204
     23 C          64.4073   82.6781   12.1227 C.ar    1  UNL1        0.0989
     24 N          64.5657   82.6253   10.6320 N.ar    1  UNL1       -0.2426
     25 C          63.8325   83.6052    9.7648 C.ar    1  UNL1        0.0962
     26 C          65.2343   90.7402   13.6247 C.3     1  UNL1        0.0485
     27 C          64.4497   90.3351   14.8373 C.2     1  UNL1       -0.0003
     28 C          63.8333   91.2651   15.8398 C.2     1  UNL1        0.0942
     29 N          63.1465   90.4336   16.8824 N.2     1  UNL1       -0.2482
     30 C          63.3385   88.9897   16.5242 C.2     1  UNL1        0.0631
     31 C          62.8839   87.7225   17.1856 C.3     1  UNL1        0.0717
     32 C          63.2349   86.3944   16.5831 C.2     1  UNL1       -0.0198
     33 C          64.0404   86.3335   15.3192 C.2     1  UNL1       -0.0042
     34 C          64.4949   87.6007   14.6578 C.2     1  UNL1        0.0006
     35 C          64.1440   88.9288   15.2602 C.2     1  UNL1        0.0115
@<TRIPOS>BOND
     1     7     8    1
     2     8     9    1
     3     8    10    1
     4     8     6    1
     5     6     2    1
     6     2     3    2
     7     2     4   am
     8     4     1    1
     9     1    11    1
    10    11    12    1
    11    12    13    1
    12    13    14    1
    13    14    15    1
    14    15    16    2
    15    15    17   am
    16    17    19    1
    17    19    20    1
    18    20    21   ar
    19    21    22   ar
    20    22    23   ar
    21    23    24   ar
    22    24    25   ar
    23     1    26    1
    24    26    27    1
    25    27    28    2
    26    28    29    1
    27    29    30    2
    28    30    31    1
    29    31    32    1
    30    32    33    2
    31    33    34    1
    32    34    35    2
    33    25    20   ar
    34    35    27    1
    35    35    30    1
    36     4     5    1
    37    17    18    1
@<TRIPOS>MOLECULE
*****
 35 37 0 0 0
SMALL
GASTEIGER

@<TRIPOS>ATOM
      1 C          62.6827   86.7865   12.0836 C.3     1  UNL1        0.0899
      2 C          61.0650   86.9960   10.0614 C.2     1  UNL1        0.4014
      3 O          62.1630   86.5585    9.1378 O.2     1  UNL1       -0.2264
      4 N          61.3249   87.1100   11.5343 N.am    1  UNL1       -0.2711
      5 H          60.6043   87.3972   12.1405 H       1  UNL1        0.1527
      6 O          59.7072   87.3195    9.5121 O.3     1  UNL1       -0.4419
      7 C          60.1408   89.3369    9.0201 C.3     1  UNL1        0.0437
      8 C          59.5789   88.1612    8.2772 C.3     1  UNL1        0.1378
      9 C          59.0170   86.9855    7.5343 C.3     1  UNL1        0.0437
     10 C          59.4505   89.0030    7.0423 C.3     1  UNL1        0.0437
     11 C          63.4909   87.8526   12.7620 C.3     1  UNL1        0.0775
     12 S          63.1290   89.2970   12.5812 S.3     1  UNL1       -0.1380
     13 C          63.3717   90.2756   13.6918 C.3     1  UNL1        0.0672
     14 C          64.7339   90.3857   14.3102 C.3     1  UNL1        0.0967
     15 C          65.6647   91.4820   13.8839 C.2     1  UNL1        0.2236
     16 O          67.0512   91.5519   14.4520 O.2     1  UNL1       -0.2751
     17 N          65.2089   92.5084   12.8896 N.am    1  UNL1       -0.3004
     18 H          64.2989   92.4625   12.5168 H       1  UNL1        0.1497
     19 C          66.1397   93.6048   12.4634 C.3     1  UNL1        0.1179
     20 C          66.8573   93.5108   11.1494 C.ar    1  UNL1        0.0166
     21 C          67.5705   92.2460   10.7731 C.ar    1  UNL1        0.0005
     22 C          68.2880   92.1521    9.4593 C.ar    1  UNL1        0.0204
     23 C          68.2925   93.3230    8.5217 C.ar    1  UNL1        0.0989
     24 N          67.5793   94.5879    8.8980 N.ar    1  UNL1       -0.2426
     25 C          66.8618   94.6817   10.2119 C.ar    1  UNL1        0.0962
     26 C          63.2324   85.3967   11.9545 C.3     1  UNL1        0.0485
     27 C          62.8897   84.3565   12.9795 C.2     1  UNL1       -0.0003
     28 C          62.5831   84.6109   14.4256 C.2     1  UNL1        0.0942
     29 N          62.2975   83.2908   15.0780 N.2     1  UNL1       -0.2482
     30 C          62.4275   82.2205   14.0352 C.2     1  UNL1        0.0631
     31 C          62.2599   80.7313   14.0990 C.3     1  UNL1        0.0717
     32 C          62.4583   79.9007   12.8659 C.2     1  UNL1       -0.0198
     33 C          62.8244   80.5593   11.5689 C.2     1  UNL1       -0.0042
     34 C          62.9920   82.0485   11.5050 C.2     1  UNL1        0.0006
     35 C          62.7936   82.8791   12.7382 C.2     1  UNL1        0.0115
@<TRIPOS>BOND
     1     7     8    1
     2     8     9    1
     3     8    10    1
     4     8     6    1
     5     6     2    1
     6     2     3    2
     7     2     4   am
     8     4     1    1
     9     1    11    1
    10    11    12    1
    11    12    13    1
    12    13    14    1
    13    14    15    1
    14    15    16    2
    15    15    17   am
    16    17    19    1
    17    19    20    1
    18    20    21   ar
    19    21    22   ar
    20    22    23   ar
    21    23    24   ar
    22    24    25   ar
    23     1    26    1
    24    26    27    1
    25    27    28    2
    26    28    29    1
    27    29    30    2
    28    30    31    1
    29    31    32    1
    30    32    33    2
    31    33    34    1
    32    34    35    2
    33    25    20   ar
    34    35    27    1
    35    35    30    1
    36     4     5    1
    37    17    18    1
@<TRIPOS>MOLECULE
*****
 35 37 0 0 0
SMALL
GASTEIGER

@<TRIPOS>ATOM
      1 C          63.7516   88.8382   13.7376 C.3     1  UNL1        0.0899
      2 C          63.0422   89.4695   11.3193 C.2     1  UNL1        0.4014
      3 O          63.4786   90.8842   11.5607 O.2     1  UNL1       -0.2264
      4 N          63.1787   88.4466   12.4078 N.am    1  UNL1       -0.2711
      5 H          62.8923   87.5181   12.2494 H       1  UNL1        0.1527
      6 O          62.4693   89.0779    9.9895 O.3     1  UNL1       -0.4419
      7 C          61.8083   87.1049    9.5769 C.3     1  UNL1        0.0437
      8 C          61.1331   88.4000    9.9189 C.3     1  UNL1        0.1378
      9 C          60.4580   89.6950   10.2608 C.3     1  UNL1        0.0437
     10 C          59.7971   87.7219    9.8482 C.3     1  UNL1        0.0437
     11 C          63.5686   90.2357   14.2510 C.3     1  UNL1        0.0775
     12 S          64.4311   90.7432   15.3682 S.3     1  UNL1       -0.1380
     13 C          65.2771   91.9654   15.1667 C.3     1  UNL1        0.0672
     14 C          66.7049   91.8254   14.7287 C.3     1  UNL1        0.0967
     15 C          67.0725   92.0394   13.2902 C.2     1  UNL1        0.2236
     16 O          68.4832   91.8103   12.8346 O.2     1  UNL1       -0.2751
     17 N          66.0295   92.4824   12.3076 N.am    1  UNL1       -0.3004
     18 H          65.1036   92.6328   12.6067 H       1  UNL1        0.1497
     19 C          66.3971   92.6964   10.8691 C.3     1  UNL1        0.1179
     20 C          66.6595   94.0829   10.3603 C.ar    1  UNL1        0.0166
     21 C          67.2971   94.2807    9.0171 C.ar    1  UNL1        0.0005
     22 C          67.5595   95.6672    8.5084 C.ar    1  UNL1        0.0204
     23 C          67.1844   96.8558    9.3428 C.ar    1  UNL1        0.0989
     24 N          66.5468   96.6580   10.6861 N.ar    1  UNL1       -0.2426
     25 C          66.2844   95.2716   11.1948 C.ar    1  UNL1        0.0962
     26 C          64.5076   87.8322   14.5542 C.3     1  UNL1        0.0485
     27 C          63.7936   86.6465   15.1323 C.2     1  UNL1       -0.0003
     28 C          63.2111   86.5543   16.5115 C.2     1  UNL1        0.0942
     29 N          62.5942   85.1956   16.6642 N.2     1  UNL1       -0.2482
     30 C          62.7955   84.4480   15.3795 C.2     1  UNL1        0.0631
     31 C          62.3996   83.0666   14.9494 C.3     1  UNL1        0.0717
     32 C          62.7450   82.5819   13.5726 C.2     1  UNL1       -0.0198
     33 C          63.4863   83.4786   12.6258 C.2     1  UNL1       -0.0042
     34 C          63.8822   84.8600   13.0558 C.2     1  UNL1        0.0006
     35 C          63.5368   85.3447   14.4327 C.2     1  UNL1        0.0115
@<TRIPOS>BOND
     1     7     8    1
     2     8     9    1
     3     8    10    1
     4     8     6    1
     5     6     2    1
     6     2     3    2
     7     2     4   am
     8     4     1    1
     9     1    11    1
    10    11    12    1
    11    12    13    1
    12    13    14    1
    13    14    15    1
    14    15    16    2
    15    15    17   am
    16    17    19    1
    17    19    20    1
    18    20    21   ar
    19    21    22   ar
    20    22    23   ar
    21    23    24   ar
    22    24    25   ar
    23     1    26    1
    24    26    27    1
    25    27    28    2
    26    28    29    1
    27    29    30    2
    28    30    31    1
    29    31    32    1
    30    32    33    2
    31    33    34    1
    32    34    35    2
    33    25    20   ar
    34    35    27    1
    35    35    30    1
    36     4     5    1
    37    17    18    1
@<TRIPOS>MOLECULE
*****
 35 37 0 0 0
SMALL
GASTEIGER

@<TRIPOS>ATOM
      1 C          60.9475   88.5006   10.6251 C.3     1  UNL1        0.0899
      2 C          62.3386   89.1835   12.7103 C.2     1  UNL1        0.4014
      3 O          63.3489   88.1242   12.3832 O.2     1  UNL1       -0.2264
      4 N          61.1379   89.3717   11.8312 N.am    1  UNL1       -0.2711
      5 H          60.4748   90.0670   12.0459 H       1  UNL1        0.1527
      6 O          62.5291   90.0547   13.9164 O.3     1  UNL1       -0.4419
      7 C          63.9895   91.2806   12.9866 C.3     1  UNL1        0.0437
      8 C          63.9013   90.5353   14.2853 C.3     1  UNL1        0.1378
      9 C          63.8132   89.7900   15.5841 C.3     1  UNL1        0.0437
     10 C          65.2735   91.0159   14.6542 C.3     1  UNL1        0.0437
     11 C          60.9214   89.1113    9.2553 C.3     1  UNL1        0.0775
     12 S          59.7918   88.8028    8.3180 S.3     1  UNL1       -0.1380
     13 C          59.7804   89.3908    6.9381 C.3     1  UNL1        0.0672
     14 C          58.4815   89.7943    6.3054 C.3     1  UNL1        0.0967
     15 C          58.4119   91.0303    5.4584 C.2     1  UNL1        0.2236
     16 O          57.0889   91.6876    5.1981 O.2     1  UNL1       -0.2751
     17 N          59.6652   91.6090    4.8717 N.am    1  UNL1       -0.3004
     18 H          60.5335   91.1776    5.0426 H       1  UNL1        0.1497
     19 C          59.5956   92.8450    4.0247 C.3     1  UNL1        0.1179
     20 C          60.3837   92.9267    2.7510 C.ar    1  UNL1        0.0166
     21 C          61.8212   92.4988    2.7296 C.ar    1  UNL1        0.0005
     22 C          62.6092   92.5806    1.4559 C.ar    1  UNL1        0.0204
     23 C          61.9597   93.0902    0.2036 C.ar    1  UNL1        0.0989
     24 N          60.5222   93.5181    0.2249 N.ar    1  UNL1       -0.2426
     25 C          59.7342   93.4364    1.4986 C.ar    1  UNL1        0.0962
     26 C          60.7830   87.0185   10.7887 C.3     1  UNL1        0.0485
     27 C          61.7546   86.0796   10.1371 C.2     1  UNL1       -0.0003
     28 C          62.0993   86.0406    8.6778 C.2     1  UNL1        0.0942
     29 N          63.1098   84.9518    8.4692 N.2     1  UNL1       -0.2482
     30 C          63.3895   84.3179    9.7996 C.2     1  UNL1        0.0631
     31 C          64.2986   83.1960   10.2056 C.3     1  UNL1        0.0717
     32 C          64.3702   82.7712   11.6424 C.2     1  UNL1       -0.0198
     33 C          63.5326   83.4683   12.6732 C.2     1  UNL1       -0.0042
     34 C          62.6234   84.5902   12.2672 C.2     1  UNL1        0.0006
     35 C          62.5519   85.0150   10.8304 C.2     1  UNL1        0.0115
@<TRIPOS>BOND
     1     7     8    1
     2     8     9    1
     3     8    10    1
     4     8     6    1
     5     6     2    1
     6     2     3    2
     7     2     4   am
     8     4     1    1
     9     1    11    1
    10    11    12    1
    11    12    13    1
    12    13    14    1
    13    14    15    1
    14    15    16    2
    15    15    17   am
    16    17    19    1
    17    19    20    1
    18    20    21   ar
    19    21    22   ar
    20    22    23   ar
    21    23    24   ar
    22    24    25   ar
    23     1    26    1
    24    26    27    1
    25    27    28    2
    26    28    29    1
    27    29    30    2
    28    30    31    1
    29    31    32    1
    30    32    33    2
    31    33    34    1
    32    34    35    2
    33    25    20   ar
    34    35    27    1
    35    35    30    1
    36     4     5    1
    37    17    18    1
@<TRIPOS>MOLECULE
*****
 35 37 0 0 0
SMALL
GASTEIGER

@<TRIPOS>ATOM
      1 C          62.6270   86.9051   12.2782 C.3     1  UNL1        0.0899
      2 C          61.1963   86.9819   10.1108 C.2     1  UNL1        0.4014
      3 O          62.4472   87.0760    9.2885 O.2     1  UNL1       -0.2264
      4 N          61.2862   86.8965   11.6057 N.am    1  UNL1       -0.2711
      5 H          60.4652   86.8347   12.1454 H       1  UNL1        0.1527
      6 O          59.8555   86.9732    9.4384 O.3     1  UNL1       -0.4419
      7 C          59.1517   86.7202    7.4533 C.3     1  UNL1        0.0437
      8 C          59.5906   87.8910    8.2819 C.3     1  UNL1        0.1378
      9 C          60.0295   89.0618    9.1105 C.3     1  UNL1        0.0437
     10 C          59.3257   88.8087    7.1253 C.3     1  UNL1        0.0437
     11 C          63.4620   88.1511   12.2701 C.3     1  UNL1        0.0775
     12 S          62.8564   89.4624   12.6749 S.3     1  UNL1       -0.1380
     13 C          63.3642   90.1795   13.8906 C.3     1  UNL1        0.0672
     14 C          64.8306   90.4589   14.0387 C.3     1  UNL1        0.0967
     15 C          65.3424   91.8637   13.9177 C.2     1  UNL1        0.2236
     16 O          65.5529   92.6939   15.1491 O.2     1  UNL1       -0.2751
     17 N          65.6436   92.4382   12.5653 N.am    1  UNL1       -0.3004
     18 H          65.5054   91.8933   11.7570 H       1  UNL1        0.1497
     19 C          66.1554   93.8430   12.4443 C.3     1  UNL1        0.1179
     20 C          66.5919   94.3698   11.1093 C.ar    1  UNL1        0.0166
     21 C          66.4554   95.8309   10.7985 C.ar    1  UNL1        0.0005
     22 C          66.8919   96.3577    9.4637 C.ar    1  UNL1        0.0204
     23 C          67.4649   95.4234    8.4396 C.ar    1  UNL1        0.0989
     24 N          67.6015   93.9623    8.7503 N.ar    1  UNL1       -0.2426
     25 C          67.1650   93.4356   10.0852 C.ar    1  UNL1        0.0962
     26 C          63.1327   85.6676   12.9587 C.3     1  UNL1        0.0485
     27 C          63.2074   84.3737   12.2036 C.2     1  UNL1       -0.0003
     28 C          63.6765   84.2042   10.7890 C.2     1  UNL1        0.0942
     29 N          63.5851   82.7479   10.4417 N.2     1  UNL1       -0.2482
     30 C          63.0594   82.0173   11.6417 C.2     1  UNL1        0.0631
     31 C          62.7632   80.5669   11.8835 C.3     1  UNL1        0.0717
     32 C          62.2335   80.1213   13.2142 C.2     1  UNL1       -0.0198
     33 C          62.0000   81.1262   14.3031 C.2     1  UNL1       -0.0042
     34 C          62.2963   82.5766   14.0614 C.2     1  UNL1        0.0006
     35 C          62.8260   83.0221   12.7306 C.2     1  UNL1        0.0115
@<TRIPOS>BOND
     1     7     8    1
     2     8     9    1
     3     8    10    1
     4     8     6    1
     5     6     2    1
     6     2     3    2
     7     2     4   am
     8     4     1    1
     9     1    11    1
    10    11    12    1
    11    12    13    1
    12    13    14    1
    13    14    15    1
    14    15    16    2
    15    15    17   am
    16    17    19    1
    17    19    20    1
    18    20    21   ar
    19    21    22   ar
    20    22    23   ar
    21    23    24   ar
    22    24    25   ar
    23     1    26    1
    24    26    27    1
    25    27    28    2
    26    28    29    1
    27    29    30    2
    28    30    31    1
    29    31    32    1
    30    32    33    2
    31    33    34    1
    32    34    35    2
    33    25    20   ar
    34    35    27    1
    35    35    30    1
    36     4     5    1
    37    17    18    1
@<TRIPOS>MOLECULE
*****
 35 37 0 0 0
SMALL
GASTEIGER

@<TRIPOS>ATOM
      1 C          63.4145   90.8526   12.3342 C.3     1  UNL1        0.0899
      2 C          65.3858   92.5398   12.4671 C.2     1  UNL1        0.4014
      3 O          65.1973   92.6429   13.9517 O.2     1  UNL1       -0.2264
      4 N          64.4944   91.6446   11.6584 N.am    1  UNL1       -0.2711
      5 H          64.6180   91.5769   10.6841 H       1  UNL1        0.1527
      6 O          66.4656   93.3318   11.7914 O.3     1  UNL1       -0.4419
      7 C          66.7425   93.5459    9.6991 C.3     1  UNL1        0.0437
      8 C          67.3440   92.6792   10.7654 C.3     1  UNL1        0.1378
      9 C          67.9455   91.8125   11.8317 C.3     1  UNL1        0.0437
     10 C          68.2223   92.0267    9.7394 C.3     1  UNL1        0.0437
     11 C          63.5519   90.4788   13.7803 C.3     1  UNL1        0.0775
     12 S          64.4794   89.3711   14.1837 S.3     1  UNL1       -0.1380
     13 C          63.9395   88.1570   14.8798 C.3     1  UNL1        0.0672
     14 C          64.7861   86.9248   15.0034 C.3     1  UNL1        0.0967
     15 C          64.1612   85.5684   14.8634 C.2     1  UNL1        0.2236
     16 O          62.6680   85.4263   14.8695 O.2     1  UNL1       -0.2751
     17 N          65.0296   84.3541   14.7173 N.am    1  UNL1       -0.3004
     18 H          66.0096   84.4474   14.7133 H       1  UNL1        0.1497
     19 C          64.4047   82.9977   14.5773 C.3     1  UNL1        0.1179
     20 C          64.0312   82.4805   13.2196 C.ar    1  UNL1        0.0166
     21 C          64.4025   83.2588   11.9923 C.ar    1  UNL1        0.0005
     22 C          64.0291   82.7416   10.6348 C.ar    1  UNL1        0.0204
     23 C          63.2844   81.4460   10.5045 C.ar    1  UNL1        0.0989
     24 N          62.9131   80.6676   11.7318 N.ar    1  UNL1       -0.2426
     25 C          63.2866   81.1849   13.0894 C.ar    1  UNL1        0.0962
     26 C          62.1972   90.4344   11.5637 C.3     1  UNL1        0.0485
     27 C          62.0543   89.0152   11.0997 C.2     1  UNL1       -0.0003
     28 C          62.7325   87.8190   11.6991 C.2     1  UNL1        0.0942
     29 N          62.3054   86.6076   10.9245 N.2     1  UNL1       -0.2482
     30 C          61.3633   87.0549    9.8465 C.2     1  UNL1        0.0631
     31 C          60.6266   86.2996    8.7803 C.3     1  UNL1        0.0717
     32 C          59.7348   87.0323    7.8223 C.2     1  UNL1       -0.0198
     33 C          59.5796   88.5204    7.9306 C.2     1  UNL1       -0.0042
     34 C          60.3162   89.2757    8.9968 C.2     1  UNL1        0.0006
     35 C          61.2081   88.5430    9.9547 C.2     1  UNL1        0.0115
@<TRIPOS>BOND
     1     7     8    1
     2     8     9    1
     3     8    10    1
     4     8     6    1
     5     6     2    1
     6     2     3    2
     7     2     4   am
     8     4     1    1
     9     1    11    1
    10    11    12    1
    11    12    13    1
    12    13    14    1
    13    14    15    1
    14    15    16    2
    15    15    17   am
    16    17    19    1
    17    19    20    1
    18    20    21   ar
    19    21    22   ar
    20    22    23   ar
    21    23    24   ar
    22    24    25   ar
    23     1    26    1
    24    26    27    1
    25    27    28    2
    26    28    29    1
    27    29    30    2
    28    30    31    1
    29    31    32    1
    30    32    33    2
    31    33    34    1
    32    34    35    2
    33    25    20   ar
    34    35    27    1
    35    35    30    1
    36     4     5    1
    37    17    18    1
