@<TRIPOS>MOLECULE
*****
 27 29 0 0 0
SMALL
GASTEIGER

@<TRIPOS>ATOM
      1 N          61.6319   88.8308   10.7028 N.pl3   1  UNL1       -0.2150
      2 H          60.7173   89.0861   10.4427 H       1  UNL1        0.1737
      3 C          62.6315   89.8887   11.0653 C.ar    1  UNL1        0.0644
      4 C          62.9774   90.9636   10.0779 C.ar    1  UNL1        0.0155
      5 C          63.9770   92.0216   10.4404 C.ar    1  UNL1       -0.0032
      6 C          64.6307   92.0047   11.7904 C.ar    1  UNL1       -0.0246
      7 C          64.2848   90.9299   12.7777 C.ar    1  UNL1       -0.0234
      8 C          63.2852   89.8719   12.4153 C.ar    1  UNL1        0.0113
      9 C          64.8154   90.7297   14.1665 C.3     1  UNL1        0.0434
     10 C          65.8231   91.5550   14.9106 C.3     1  UNL1        0.0768
     11 N          66.5488   92.7841   14.4499 N.3     1  UNL1       -0.2709
     12 C          67.5033   93.3852   15.4386 C.3     1  UNL1        0.0897
     13 C          66.4463   93.4918   13.1313 C.3     1  UNL1        0.0768
     14 C          65.5926   93.1449   11.9477 C.3     1  UNL1        0.0433
     15 S          62.0258   87.3838   10.7365 S.O2    1  UNL1        0.0736
     16 O          62.8464   87.5783    9.4960 O.2     1  UNL1       -0.1499
     17 O          61.2052   87.1893   11.9770 O.2     1  UNL1       -0.1499
     18 C          63.2074   83.0429   10.8377 C.ar    1  UNL1       -0.0221
     19 C          62.7234   83.7177   12.0867 C.ar    1  UNL1       -0.0029
     20 C          62.3294   85.1647   12.0531 C.ar    1  UNL1        0.0199
     21 C          62.4197   85.9368   10.7702 C.ar    1  UNL1        0.1251
     22 C          62.9038   85.2620    9.5211 C.ar    1  UNL1        0.0199
     23 C          63.2976   83.8150    9.5548 C.ar    1  UNL1       -0.0029
     24 C          63.6013   81.5959   10.8713 C.3     1  UNL1        0.0264
     25 C          62.7485   80.6034   11.6046 C.3     1  UNL1        0.0047
     26 C          61.4736   80.7752   13.8618 C.3     1  UNL1        0.0000
     27 C          62.7526   80.5745   13.1043 C.3     1  UNL1        0.0003
@<TRIPOS>BOND
     1    26    27    1
     2    27    25    1
     3    25    24    1
     4    24    18    1
     5    18    19   ar
     6    19    20   ar
     7    20    21   ar
     8    21    15    1
     9    15    16    2
    10    15    17    2
    11    15     1    1
    12     1     3    1
    13     3     4   ar
    14     4     5   ar
    15     5     6   ar
    16     6     7   ar
    17     7     8   ar
    18     7     9    1
    19     9    10    1
    20    10    11    1
    21    11    12    1
    22    11    13    1
    23    13    14    1
    24    21    22   ar
    25    22    23   ar
    26    23    18   ar
    27     8     3   ar
    28    14     6    1
    29     1     2    1
@<TRIPOS>MOLECULE
*****
 27 29 0 0 0
SMALL
GASTEIGER

@<TRIPOS>ATOM
      1 N          61.6628   88.5694   10.7722 N.pl3   1  UNL1       -0.2150
      2 H          60.7563   88.8303   10.4904 H       1  UNL1        0.1737
      3 C          62.0748   87.1276   10.7321 C.ar    1  UNL1        0.0644
      4 C          62.4598   86.4937    9.4283 C.ar    1  UNL1        0.0155
      5 C          62.8718   85.0519    9.3881 C.ar    1  UNL1       -0.0032
      6 C          62.8989   84.2441   10.6519 C.ar    1  UNL1       -0.0246
      7 C          62.5140   84.8781   11.9555 C.ar    1  UNL1       -0.0234
      8 C          62.1019   86.3198   11.9958 C.ar    1  UNL1        0.0113
      9 C          62.4722   84.2580   13.3208 C.3     1  UNL1        0.0434
     10 C          62.8050   82.8507   13.7193 C.3     1  UNL1        0.0768
     11 N          63.2619   81.7161   12.8511 N.3     1  UNL1       -0.2709
     12 C          63.5154   80.4173   13.5575 C.3     1  UNL1        0.0897
     13 C          63.4987   81.7084   11.3699 C.3     1  UNL1        0.0768
     14 C          63.3372   82.8335   10.3912 C.3     1  UNL1        0.0433
     15 S          62.6319   89.6135   11.2417 S.O2    1  UNL1        0.0736
     16 O          62.9655   89.9444    9.8172 O.2     1  UNL1       -0.1499
     17 O          62.2983   89.2827   12.6662 O.2     1  UNL1       -0.1499
     18 C          65.5395   92.7461   12.6501 C.ar    1  UNL1       -0.0221
     19 C          65.0291   91.7113   13.6086 C.ar    1  UNL1       -0.0029
     20 C          64.0600   90.6671   13.1393 C.ar    1  UNL1        0.0199
     21 C          63.6011   90.6577   11.7112 C.ar    1  UNL1        0.1251
     22 C          64.1115   91.6925   10.7525 C.ar    1  UNL1        0.0199
     23 C          65.0806   92.7367   11.2220 C.ar    1  UNL1       -0.0029
     24 C          66.5087   93.7903   13.1195 C.3     1  UNL1        0.0264
     25 C          66.9229   93.8353   14.5605 C.3     1  UNL1        0.0047
     26 C          68.0985   92.1110   16.1079 C.3     1  UNL1        0.0000
     27 C          68.1673   93.1260   15.0057 C.3     1  UNL1        0.0003
@<TRIPOS>BOND
     1    26    27    1
     2    27    25    1
     3    25    24    1
     4    24    18    1
     5    18    19   ar
     6    19    20   ar
     7    20    21   ar
     8    21    15    1
     9    15    16    2
    10    15    17    2
    11    15     1    1
    12     1     3    1
    13     3     4   ar
    14     4     5   ar
    15     5     6   ar
    16     6     7   ar
    17     7     8   ar
    18     7     9    1
    19     9    10    1
    20    10    11    1
    21    11    12    1
    22    11    13    1
    23    13    14    1
    24    21    22   ar
    25    22    23   ar
    26    23    18   ar
    27     8     3   ar
    28    14     6    1
    29     1     2    1
@<TRIPOS>MOLECULE
*****
 27 29 0 0 0
SMALL
GASTEIGER

@<TRIPOS>ATOM
      1 N          64.5175   89.8275   14.7327 N.pl3   1  UNL1       -0.2150
      2 H          64.5270   89.9307   15.7117 H       1  UNL1        0.1737
      3 C          64.1168   88.5182   14.1203 C.ar    1  UNL1        0.0644
      4 C          63.4431   88.4919   12.7804 C.ar    1  UNL1        0.0155
      5 C          63.0424   87.1825   12.1679 C.ar    1  UNL1       -0.0032
      6 C          63.3153   85.8994   12.8956 C.ar    1  UNL1       -0.0246
      7 C          63.9889   85.9258   14.2354 C.ar    1  UNL1       -0.0234
      8 C          64.3897   87.2351   14.8479 C.ar    1  UNL1        0.0113
      9 C          64.3512   84.7720   15.1229 C.3     1  UNL1        0.0434
     10 C          64.1293   83.3069   14.8896 C.3     1  UNL1        0.0768
     11 N          63.4904   82.6339   13.7112 N.3     1  UNL1       -0.2709
     12 C          63.4166   81.1372   13.7777 C.3     1  UNL1        0.0897
     13 C          62.9155   83.2596   12.4751 C.3     1  UNL1        0.0768
     14 C          62.8375   84.7129   12.1121 C.3     1  UNL1        0.0433
     15 S          64.9039   90.9796   13.8533 S.O2    1  UNL1        0.0736
     16 O          63.4602   91.2046   13.5137 O.2     1  UNL1       -0.1499
     17 O          66.3476   90.7547   14.1928 O.2     1  UNL1       -0.1499
     18 C          66.0630   94.4361   11.2151 C.ar    1  UNL1       -0.0221
     19 C          66.4929   94.4121   12.6519 C.ar    1  UNL1       -0.0029
     20 C          66.1066   93.2600   13.5314 C.ar    1  UNL1        0.0199
     21 C          65.2902   92.1318   12.9739 C.ar    1  UNL1        0.1251
     22 C          64.8602   92.1557   11.5370 C.ar    1  UNL1        0.0199
     23 C          65.2466   93.3079   10.6576 C.ar    1  UNL1       -0.0029
     24 C          66.4493   95.5882   10.3356 C.3     1  UNL1        0.0264
     25 C          67.6241   95.4649    9.4112 C.3     1  UNL1        0.0047
     26 C          68.5796   93.0769    9.0445 C.3     1  UNL1        0.0000
     27 C          67.7777   94.2449    8.5521 C.3     1  UNL1        0.0003
@<TRIPOS>BOND
     1    26    27    1
     2    27    25    1
     3    25    24    1
     4    24    18    1
     5    18    19   ar
     6    19    20   ar
     7    20    21   ar
     8    21    15    1
     9    15    16    2
    10    15    17    2
    11    15     1    1
    12     1     3    1
    13     3     4   ar
    14     4     5   ar
    15     5     6   ar
    16     6     7   ar
    17     7     8   ar
    18     7     9    1
    19     9    10    1
    20    10    11    1
    21    11    12    1
    22    11    13    1
    23    13    14    1
    24    21    22   ar
    25    22    23   ar
    26    23    18   ar
    27     8     3   ar
    28    14     6    1
    29     1     2    1
@<TRIPOS>MOLECULE
*****
 27 29 0 0 0
SMALL
GASTEIGER

@<TRIPOS>ATOM
      1 N          64.1725   90.8990   15.5998 N.pl3   1  UNL1       -0.2150
      2 H          63.9308   91.5647   16.2837 H       1  UNL1        0.1737
      3 C          63.8357   89.4524   15.8091 C.ar    1  UNL1        0.0644
      4 C          63.1238   89.0211   17.0569 C.ar    1  UNL1        0.0155
      5 C          62.7870   87.5744   17.2663 C.ar    1  UNL1       -0.0032
      6 C          63.1621   86.5591   16.2277 C.ar    1  UNL1       -0.0246
      7 C          63.8739   86.9905   14.9799 C.ar    1  UNL1       -0.0234
      8 C          64.2108   88.4371   14.7705 C.ar    1  UNL1        0.0113
      9 C          64.3351   86.1482   13.8276 C.3     1  UNL1        0.0434
     10 C          64.1982   84.6664   13.6385 C.3     1  UNL1        0.0768
     11 N          63.5664   83.6611   14.5551 N.3     1  UNL1       -0.2709
     12 C          63.5885   82.2397   14.0763 C.3     1  UNL1        0.0897
     13 C          62.9154   83.8891   15.8871 C.3     1  UNL1        0.0768
     14 C          62.7355   85.1789   16.6315 C.3     1  UNL1        0.0433
     15 S          64.8775   91.3315   14.3484 S.O2    1  UNL1        0.0736
     16 O          63.5581   91.4433   13.6437 O.2     1  UNL1       -0.1499
     17 O          66.1970   91.2196   15.0531 O.2     1  UNL1       -0.1499
     18 C          66.9926   92.6288   10.5942 C.ar    1  UNL1       -0.0221
     19 C          67.7788   92.3578   11.8426 C.ar    1  UNL1       -0.0029
     20 C          67.0739   91.9254   13.0940 C.ar    1  UNL1        0.0199
     21 C          65.5825   91.7639   13.0970 C.ar    1  UNL1        0.1251
     22 C          64.7963   92.0348   11.8486 C.ar    1  UNL1        0.0199
     23 C          65.5013   92.4673   10.5972 C.ar    1  UNL1       -0.0029
     24 C          67.6975   93.0612    9.3428 C.3     1  UNL1        0.0264
     25 C          68.0813   94.4993    9.1571 C.3     1  UNL1        0.0047
     26 C          66.6716   96.2916   10.4024 C.3     1  UNL1        0.0000
     27 C          67.0227   95.5619    9.1398 C.3     1  UNL1        0.0003
@<TRIPOS>BOND
     1    26    27    1
     2    27    25    1
     3    25    24    1
     4    24    18    1
     5    18    19   ar
     6    19    20   ar
     7    20    21   ar
     8    21    15    1
     9    15    16    2
    10    15    17    2
    11    15     1    1
    12     1     3    1
    13     3     4   ar
    14     4     5   ar
    15     5     6   ar
    16     6     7   ar
    17     7     8   ar
    18     7     9    1
    19     9    10    1
    20    10    11    1
    21    11    12    1
    22    11    13    1
    23    13    14    1
    24    21    22   ar
    25    22    23   ar
    26    23    18   ar
    27     8     3   ar
    28    14     6    1
    29     1     2    1
@<TRIPOS>MOLECULE
*****
 27 29 0 0 0
SMALL
GASTEIGER

@<TRIPOS>ATOM
      1 N          63.4849   89.3725   14.6084 N.pl3   1  UNL1       -0.2150
      2 H          62.9263   89.6302   15.3770 H       1  UNL1        0.1737
      3 C          63.7456   87.9232   14.3231 C.ar    1  UNL1        0.0644
      4 C          64.5543   87.1033   15.2843 C.ar    1  UNL1        0.0155
      5 C          64.8150   85.6539   14.9991 C.ar    1  UNL1       -0.0032
      6 C          64.2671   85.0245   13.7526 C.ar    1  UNL1       -0.0246
      7 C          63.4586   85.8443   12.7915 C.ar    1  UNL1       -0.0234
      8 C          63.1978   87.2937   13.0766 C.ar    1  UNL1        0.0113
      9 C          62.8248   85.4172   11.5007 C.3     1  UNL1        0.0434
     10 C          62.8432   84.0645   10.8524 C.3     1  UNL1        0.0768
     11 N          63.4998   82.8052   11.3348 N.3     1  UNL1       -0.2709
     12 C          63.3340   81.6050   10.4505 C.3     1  UNL1        0.0897
     13 C          64.3002   82.5872   12.5845 C.3     1  UNL1        0.0768
     14 C          64.6418   83.5749   13.6605 C.3     1  UNL1        0.0433
     15 S          64.0752   90.4293   13.7224 S.O2    1  UNL1        0.0736
     16 O          65.3484   90.3816   14.5140 O.2     1  UNL1       -0.1499
     17 O          62.8019   90.4769   12.9309 O.2     1  UNL1       -0.1499
     18 C          65.8461   93.5995   11.0646 C.ar    1  UNL1       -0.0221
     19 C          64.8476   92.6274   10.5097 C.ar    1  UNL1       -0.0029
     20 C          64.2572   91.5706   11.3956 C.ar    1  UNL1        0.0199
     21 C          64.6655   91.4860   12.8365 C.ar    1  UNL1        0.1251
     22 C          65.6641   92.4581   13.3915 C.ar    1  UNL1        0.0199
     23 C          66.2544   93.5148   12.5055 C.ar    1  UNL1       -0.0029
     24 C          66.4365   94.6562   10.1788 C.3     1  UNL1        0.0264
     25 C          67.3832   94.2713    9.0808 C.3     1  UNL1        0.0047
     26 C          68.5491   91.9496    9.0604 C.3     1  UNL1        0.0000
     27 C          68.5757   93.4137    9.3850 C.3     1  UNL1        0.0003
@<TRIPOS>BOND
     1    26    27    1
     2    27    25    1
     3    25    24    1
     4    24    18    1
     5    18    19   ar
     6    19    20   ar
     7    20    21   ar
     8    21    15    1
     9    15    16    2
    10    15    17    2
    11    15     1    1
    12     1     3    1
    13     3     4   ar
    14     4     5   ar
    15     5     6   ar
    16     6     7   ar
    17     7     8   ar
    18     7     9    1
    19     9    10    1
    20    10    11    1
    21    11    12    1
    22    11    13    1
    23    13    14    1
    24    21    22   ar
    25    22    23   ar
    26    23    18   ar
    27     8     3   ar
    28    14     6    1
    29     1     2    1
@<TRIPOS>MOLECULE
*****
 27 29 0 0 0
SMALL
GASTEIGER

@<TRIPOS>ATOM
      1 N          58.4184   88.9983    7.0609 N.pl3   1  UNL1       -0.2150
      2 H          57.4581   88.9140    7.2607 H       1  UNL1        0.1737
      3 C          58.8882   89.9958    6.0439 C.ar    1  UNL1        0.0644
      4 C          57.9390   91.0285    5.5123 C.ar    1  UNL1        0.0155
      5 C          58.4087   92.0261    4.4953 C.ar    1  UNL1       -0.0032
      6 C          59.8276   91.9910    4.0100 C.ar    1  UNL1       -0.0246
      7 C          60.7767   90.9584    4.5416 C.ar    1  UNL1       -0.0234
      8 C          60.3071   89.9608    5.5586 C.ar    1  UNL1        0.0113
      9 C          62.2211   90.7489    4.1950 C.3     1  UNL1        0.0434
     10 C          63.0729   91.5205    3.2310 C.3     1  UNL1        0.0768
     11 N          62.6908   92.6919    2.3758 N.3     1  UNL1       -0.2709
     12 C          63.7811   93.2476    1.5084 C.3     1  UNL1        0.0897
     13 C          61.3625   93.3813    2.2731 C.3     1  UNL1        0.0768
     14 C          60.0883   93.0693    3.0004 C.3     1  UNL1        0.0433
     15 S          59.4119   88.1292    7.7735 S.O2    1  UNL1        0.0736
     16 O          59.8618   89.3083    8.5843 O.2     1  UNL1       -0.1499
     17 O          58.9620   86.9502    6.9626 O.2     1  UNL1       -0.1499
     18 C          62.3923   85.5220    9.9111 C.ar    1  UNL1       -0.0221
     19 C          62.1939   85.3766    8.4315 C.ar    1  UNL1       -0.0029
     20 C          61.2005   86.2456    7.7188 C.ar    1  UNL1        0.0199
     21 C          60.4054   87.2601    8.4860 C.ar    1  UNL1        0.1251
     22 C          60.6037   87.4056    9.9658 C.ar    1  UNL1        0.0199
     23 C          61.5972   86.5365   10.6783 C.ar    1  UNL1       -0.0029
     24 C          63.3857   84.6529   10.6238 C.3     1  UNL1        0.0264
     25 C          63.9437   83.4383    9.9431 C.3     1  UNL1        0.0047
     26 C          62.8860   81.9247   11.7707 C.3     1  UNL1        0.0000
     27 C          63.6555   82.0723   10.4917 C.3     1  UNL1        0.0003
@<TRIPOS>BOND
     1    26    27    1
     2    27    25    1
     3    25    24    1
     4    24    18    1
     5    18    19   ar
     6    19    20   ar
     7    20    21   ar
     8    21    15    1
     9    15    16    2
    10    15    17    2
    11    15     1    1
    12     1     3    1
    13     3     4   ar
    14     4     5   ar
    15     5     6   ar
    16     6     7   ar
    17     7     8   ar
    18     7     9    1
    19     9    10    1
    20    10    11    1
    21    11    12    1
    22    11    13    1
    23    13    14    1
    24    21    22   ar
    25    22    23   ar
    26    23    18   ar
    27     8     3   ar
    28    14     6    1
    29     1     2    1
@<TRIPOS>MOLECULE
*****
 27 29 0 0 0
SMALL
GASTEIGER

@<TRIPOS>ATOM
      1 N          63.5333   87.7927   15.6411 N.pl3   1  UNL1       -0.2150
      2 H          63.0617   87.9432   16.4921 H       1  UNL1        0.1737
      3 C          63.7960   86.3944   15.1662 C.ar    1  UNL1        0.0644
      4 C          65.1784   85.9929   14.7445 C.ar    1  UNL1        0.0155
      5 C          65.4413   84.5945   14.2696 C.ar    1  UNL1       -0.0032
      6 C          64.3216   83.5977   14.2163 C.ar    1  UNL1       -0.0246
      7 C          62.9393   83.9992   14.6380 C.ar    1  UNL1       -0.0234
      8 C          62.6765   85.3975   15.1129 C.ar    1  UNL1        0.0113
      9 C          61.6906   83.1684   14.6625 C.3     1  UNL1        0.0434
     10 C          61.5160   81.7307   14.2713 C.3     1  UNL1        0.0768
     11 N          62.5468   80.7691   13.7592 N.3     1  UNL1       -0.2709
     12 C          62.0522   79.3862   13.4542 C.3     1  UNL1        0.0897
     13 C          64.0070   81.0073   13.5116 C.3     1  UNL1        0.0768
     14 C          64.7968   82.2662   13.7150 C.3     1  UNL1        0.0433
     15 S          63.9891   88.9619   14.8193 S.O2    1  UNL1        0.0736
     16 O          64.1011   89.7926   16.0633 O.2     1  UNL1       -0.1499
     17 O          63.8771   88.1313   13.5753 O.2     1  UNL1       -0.1499
     18 C          65.3566   92.4694   12.3541 C.ar    1  UNL1       -0.0221
     19 C          64.2686   91.5722   11.8431 C.ar    1  UNL1       -0.0029
     20 C          63.8127   90.4030   12.6647 C.ar    1  UNL1        0.0199
     21 C          64.4450   90.1311   13.9976 C.ar    1  UNL1        0.1251
     22 C          65.5330   91.0283   14.5086 C.ar    1  UNL1        0.0199
     23 C          65.9889   92.1975   13.6869 C.ar    1  UNL1       -0.0029
     24 C          65.8125   93.6386   11.5324 C.3     1  UNL1        0.0264
     25 C          66.5372   93.4093   10.2392 C.3     1  UNL1        0.0047
     26 C          68.6601   92.4477    9.0909 C.3     1  UNL1        0.0000
     27 C          67.6057   92.3599   10.1541 C.3     1  UNL1        0.0003
@<TRIPOS>BOND
     1    26    27    1
     2    27    25    1
     3    25    24    1
     4    24    18    1
     5    18    19   ar
     6    19    20   ar
     7    20    21   ar
     8    21    15    1
     9    15    16    2
    10    15    17    2
    11    15     1    1
    12     1     3    1
    13     3     4   ar
    14     4     5   ar
    15     5     6   ar
    16     6     7   ar
    17     7     8   ar
    18     7     9    1
    19     9    10    1
    20    10    11    1
    21    11    12    1
    22    11    13    1
    23    13    14    1
    24    21    22   ar
    25    22    23   ar
    26    23    18   ar
    27     8     3   ar
    28    14     6    1
    29     1     2    1
@<TRIPOS>MOLECULE
*****
 27 29 0 0 0
SMALL
GASTEIGER

@<TRIPOS>ATOM
      1 N          58.9800   89.0127    7.0420 N.pl3   1  UNL1       -0.2150
      2 H          58.2445   88.3639    6.9561 H       1  UNL1        0.1737
      3 C          59.1920   90.0511    5.9805 C.ar    1  UNL1        0.0644
      4 C          58.0436   90.9002    5.5221 C.ar    1  UNL1        0.0155
      5 C          58.2555   91.9387    4.4606 C.ar    1  UNL1       -0.0032
      6 C          59.6158   92.1279    3.8575 C.ar    1  UNL1       -0.0246
      7 C          60.7641   91.2788    4.3159 C.ar    1  UNL1       -0.0234
      8 C          60.5523   90.2404    5.3774 C.ar    1  UNL1        0.0113
      9 C          62.1899   91.3035    3.8503 C.3     1  UNL1        0.0434
     10 C          62.8193   92.1836    2.8113 C.3     1  UNL1        0.0768
     11 N          62.1785   93.2561    1.9814 N.3     1  UNL1       -0.2709
     12 C          63.0862   93.9649    1.0203 C.3     1  UNL1        0.0897
     13 C          60.7499   93.7136    1.9853 C.3     1  UNL1        0.0768
     14 C          59.6094   93.2115    2.8203 C.3     1  UNL1        0.0433
     15 S          59.8888   88.9627    8.2343 S.O2    1  UNL1        0.0736
     16 O          60.2574   87.5490    7.8942 O.2     1  UNL1       -0.1499
     17 O          59.5203   90.3764    8.5744 O.2     1  UNL1       -0.1499
     18 C          62.6151   88.8129   11.8113 C.ar    1  UNL1       -0.0221
     19 C          62.4676   87.6084   10.9297 C.ar    1  UNL1       -0.0029
     20 C          61.5589   87.6582    9.7374 C.ar    1  UNL1        0.0199
     21 C          60.7976   88.9128    9.4267 C.ar    1  UNL1        0.1251
     22 C          60.9451   90.1174   10.3083 C.ar    1  UNL1        0.0199
     23 C          61.8538   90.0675   11.5006 C.ar    1  UNL1       -0.0029
     24 C          63.5239   88.7631   13.0037 C.3     1  UNL1        0.0264
     25 C          63.8894   90.0285   13.7214 C.3     1  UNL1        0.0047
     26 C          66.0126   91.2786   14.5456 C.3     1  UNL1        0.0000
     27 C          65.1180   90.0752   14.5808 C.3     1  UNL1        0.0003
@<TRIPOS>BOND
     1    26    27    1
     2    27    25    1
     3    25    24    1
     4    24    18    1
     5    18    19   ar
     6    19    20   ar
     7    20    21   ar
     8    21    15    1
     9    15    16    2
    10    15    17    2
    11    15     1    1
    12     1     3    1
    13     3     4   ar
    14     4     5   ar
    15     5     6   ar
    16     6     7   ar
    17     7     8   ar
    18     7     9    1
    19     9    10    1
    20    10    11    1
    21    11    12    1
    22    11    13    1
    23    13    14    1
    24    21    22   ar
    25    22    23   ar
    26    23    18   ar
    27     8     3   ar
    28    14     6    1
    29     1     2    1
@<TRIPOS>MOLECULE
*****
 27 29 0 0 0
SMALL
GASTEIGER

@<TRIPOS>ATOM
      1 N          58.4842   89.5862    6.5875 N.pl3   1  UNL1       -0.2150
      2 H          57.5005   89.5484    6.5929 H       1  UNL1        0.1737
      3 C          59.2710   88.7845    7.5816 C.ar    1  UNL1        0.0644
      4 C          59.2377   87.2857    7.5308 C.ar    1  UNL1        0.0155
      5 C          60.0245   86.4839    8.5249 C.ar    1  UNL1       -0.0032
      6 C          60.8446   87.1809    9.5698 C.ar    1  UNL1       -0.0246
      7 C          60.8778   88.6796    9.6205 C.ar    1  UNL1       -0.0234
      8 C          60.0911   89.4814    8.6265 C.ar    1  UNL1        0.0113
      9 C          61.6238   89.5669   10.5726 C.3     1  UNL1        0.0434
     10 C          62.5209   89.1743   11.7090 C.3     1  UNL1        0.0768
     11 N          62.8934   87.7978   12.1739 N.3     1  UNL1       -0.2709
     12 C          63.8211   87.7373   13.3511 C.3     1  UNL1        0.0897
     13 C          62.4609   86.4736   11.6174 C.3     1  UNL1        0.0768
     14 C          61.5491   86.1991   10.4584 C.3     1  UNL1        0.0433
     15 S          59.1964   90.4454    5.5852 S.O2    1  UNL1        0.0736
     16 O          60.4414   89.6294    5.7703 O.2     1  UNL1       -0.1499
     17 O          57.9514   91.2613    5.4001 O.2     1  UNL1       -0.1499
     18 C          61.3328   93.0230    2.5783 C.ar    1  UNL1       -0.0221
     19 C          59.8801   93.2571    2.8692 C.ar    1  UNL1       -0.0029
     20 C          59.1679   92.3979    3.8715 C.ar    1  UNL1        0.0199
     21 C          59.9085   91.3046    4.5829 C.ar    1  UNL1        0.1251
     22 C          61.3614   91.0704    4.2920 C.ar    1  UNL1        0.0199
     23 C          62.0735   91.9296    3.2897 C.ar    1  UNL1       -0.0029
     24 C          62.0451   93.8821    1.5760 C.3     1  UNL1        0.0264
     25 C          61.8365   93.6522    0.1085 C.3     1  UNL1        0.0047
     26 C          59.7087   92.4308   -0.7462 C.3     1  UNL1        0.0000
     27 C          61.1593   92.4006   -0.3658 C.3     1  UNL1        0.0003
@<TRIPOS>BOND
     1    26    27    1
     2    27    25    1
     3    25    24    1
     4    24    18    1
     5    18    19   ar
     6    19    20   ar
     7    20    21   ar
     8    21    15    1
     9    15    16    2
    10    15    17    2
    11    15     1    1
    12     1     3    1
    13     3     4   ar
    14     4     5   ar
    15     5     6   ar
    16     6     7   ar
    17     7     8   ar
    18     7     9    1
    19     9    10    1
    20    10    11    1
    21    11    12    1
    22    11    13    1
    23    13    14    1
    24    21    22   ar
    25    22    23   ar
    26    23    18   ar
    27     8     3   ar
    28    14     6    1
    29     1     2    1
