@<TRIPOS>MOLECULE
*****
 37 39 0 0 0
SMALL
GASTEIGER

@<TRIPOS>ATOM
      1 C          63.7699   90.7214   12.4051 C.2     1  UNL1        0.2271
      2 O          63.4253   90.7936   10.9471 O.2     1  UNL1       -0.2748
      3 N          63.8113   89.3933   13.1012 N.am    1  UNL1       -0.2760
      4 C          63.5080   88.1374   12.3392 C.3     1  UNL1        0.1149
      5 C          63.5494   86.8094   13.0353 C.3     1  UNL1        0.1152
      6 N          63.8940   86.7373   14.4934 N.am    1  UNL1       -0.2726
      7 C          63.9354   85.4091   15.1895 C.2     1  UNL1        0.2491
      8 O          64.2800   85.3370   16.6475 O.2     1  UNL1       -0.2699
      9 C          64.1973   87.9932   15.2554 C.3     1  UNL1        0.1152
     10 C          64.1559   89.3212   14.5593 C.3     1  UNL1        0.1149
     11 C          63.6321   84.1532   14.4275 C.ar    1  UNL1        0.0537
     12 C          64.5790   83.6713   13.3686 C.ar    1  UNL1        0.0059
     13 C          64.2757   82.4153   12.6066 C.ar    1  UNL1        0.0200
     14 C          63.0255   81.6414   12.9034 C.ar    1  UNL1        0.1217
     15 C          62.0787   82.1233   13.9623 C.ar    1  UNL1        0.0200
     16 C          62.3819   83.3792   14.7243 C.ar    1  UNL1        0.0059
     17 S          62.7223   80.3855   12.1414 S.O2    1  UNL1        0.0572
     18 N          62.4190   79.1295   11.3794 N.3     1  UNL1       -0.2035
     19 O          63.1379   81.0584   10.8669 O.2     1  UNL1       -0.1532
     20 O          62.3066   79.7125   13.4159 O.2     1  UNL1       -0.1532
     21 H          62.6167   79.2762   10.3896 H       1  UNL1        0.1442
     22 H          61.4347   78.8894   11.4975 H       1  UNL1        0.1442
     23 C          64.0732   91.9773   13.1671 C.3     1  UNL1        0.1010
     24 N          65.8829   93.0593   14.6852 N.3     1  UNL1       -0.3215
     25 C          65.4970   92.3876   13.4007 C.3     1  UNL1        0.0644
     26 H          65.0592   93.1564   15.2789 H       1  UNL1        0.1188
     27 H          66.2677   93.9822   14.4840 H       1  UNL1        0.1188
     28 C          66.5348   92.1263   12.3497 C.3     1  UNL1        0.0447
     29 C          66.7917   93.1454   11.2796 C.ar    1  UNL1        0.0090
     30 C          66.1280   94.4889   11.3484 C.ar    1  UNL1        0.0300
     31 C          66.3849   95.5081   10.2783 C.ar    1  UNL1        0.1672
     32 F          65.7212   96.8515   10.3472 F       1  UNL1       -0.2018
     33 C          67.3054   95.1839    9.1392 C.ar    1  UNL1        0.1696
     34 F          67.5623   96.2030    8.0691 F       1  UNL1       -0.2017
     35 C          67.9691   93.8405    9.0703 C.ar    1  UNL1        0.0612
     36 C          67.7123   92.8212   10.1405 C.ar    1  UNL1        0.1386
     37 F          68.3760   91.4778   10.0716 F       1  UNL1       -0.2044
@<TRIPOS>BOND
     1    25    24    1
     2    25    23    1
     3    23     1    1
     4     1     2    2
     5     1     3   am
     6     3     4    1
     7     4     5    1
     8     5     6    1
     9     6     7   am
    10     7     8    2
    11     7    11    1
    12    11    12   ar
    13    12    13   ar
    14    13    14   ar
    15    14    17    1
    16    17    18    1
    17    17    19    2
    18    17    20    2
    19    14    15   ar
    20    15    16   ar
    21     6     9    1
    22     9    10    1
    23    25    28    1
    24    28    29    1
    25    29    30   ar
    26    30    31   ar
    27    31    32    1
    28    31    33   ar
    29    33    34    1
    30    33    35   ar
    31    35    36   ar
    32    36    37    1
    33    10     3    1
    34    36    29   ar
    35    16    11   ar
    36    24    26    1
    37    24    27    1
    38    18    21    1
    39    18    22    1
@<TRIPOS>MOLECULE
*****
 37 39 0 0 0
SMALL
GASTEIGER

@<TRIPOS>ATOM
      1 C          63.8180   90.7575   12.4478 C.2     1  UNL1        0.2271
      2 O          63.5125   90.8348   10.9813 O.2     1  UNL1       -0.2748
      3 N          63.8371   89.4273   13.1408 N.am    1  UNL1       -0.2760
      4 C          63.5506   88.1745   12.3673 C.3     1  UNL1        0.1149
      5 C          63.5697   86.8443   13.0603 C.3     1  UNL1        0.1152
      6 N          63.8751   86.7670   14.5268 N.am    1  UNL1       -0.2726
      7 C          63.8942   85.4367   15.2198 C.2     1  UNL1        0.2491
      8 O          64.1997   85.3594   16.6863 O.2     1  UNL1       -0.2699
      9 C          64.1616   88.0198   15.3003 C.3     1  UNL1        0.1152
     10 C          64.1425   89.3499   14.6073 C.3     1  UNL1        0.1149
     11 C          63.6077   84.1839   14.4463 C.ar    1  UNL1        0.0537
     12 C          64.5396   83.7465   13.3553 C.ar    1  UNL1        0.0059
     13 C          64.2531   82.4936   12.5818 C.ar    1  UNL1        0.0200
     14 C          63.0348   81.6782   12.8992 C.ar    1  UNL1        0.1217
     15 C          62.1029   82.1157   13.9902 C.ar    1  UNL1        0.0200
     16 C          62.3893   83.3685   14.7637 C.ar    1  UNL1        0.0059
     17 S          62.7484   80.4254   12.1257 S.O2    1  UNL1        0.0572
     18 N          62.4619   79.1726   11.3521 N.3     1  UNL1       -0.2035
     19 O          62.3483   79.7333   13.3949 O.2     1  UNL1       -0.1532
     20 O          63.1484   81.1176   10.8565 O.2     1  UNL1       -0.1532
     21 H          62.1405   78.4448   11.9904 H       1  UNL1        0.1442
     22 H          63.3120   78.8614   10.8821 H       1  UNL1        0.1442
     23 C          64.1045   92.0103   13.2213 C.3     1  UNL1        0.1010
     24 N          65.7401   92.9812   14.9912 N.3     1  UNL1       -0.3215
     25 C          65.5038   92.3113   13.6700 C.3     1  UNL1        0.0644
     26 H          64.8451   93.1582   15.4475 H       1  UNL1        0.1188
     27 H          66.2263   93.8654   14.8419 H       1  UNL1        0.1188
     28 C          66.6669   91.9425   12.7976 C.3     1  UNL1        0.0447
     29 C          66.9971   92.7768   11.5956 C.ar    1  UNL1        0.0090
     30 C          67.7064   92.1602   10.4265 C.ar    1  UNL1        0.0300
     31 C          68.0366   92.9946    9.2245 C.ar    1  UNL1        0.1672
     32 F          68.7459   92.3780    8.0555 F       1  UNL1       -0.2018
     33 C          67.6575   94.4455    9.1916 C.ar    1  UNL1        0.1696
     34 F          67.9877   95.2798    7.9896 F       1  UNL1       -0.2017
     35 C          66.9482   95.0621   10.3606 C.ar    1  UNL1        0.0612
     36 C          66.6179   94.2277   11.5627 C.ar    1  UNL1        0.1386
     37 F          65.9086   94.8443   12.7317 F       1  UNL1       -0.2044
@<TRIPOS>BOND
     1    25    24    1
     2    25    23    1
     3    23     1    1
     4     1     2    2
     5     1     3   am
     6     3     4    1
     7     4     5    1
     8     5     6    1
     9     6     7   am
    10     7     8    2
    11     7    11    1
    12    11    12   ar
    13    12    13   ar
    14    13    14   ar
    15    14    17    1
    16    17    18    1
    17    17    19    2
    18    17    20    2
    19    14    15   ar
    20    15    16   ar
    21     6     9    1
    22     9    10    1
    23    25    28    1
    24    28    29    1
    25    29    30   ar
    26    30    31   ar
    27    31    32    1
    28    31    33   ar
    29    33    34    1
    30    33    35   ar
    31    35    36   ar
    32    36    37    1
    33    10     3    1
    34    36    29   ar
    35    16    11   ar
    36    24    26    1
    37    24    27    1
    38    18    21    1
    39    18    22    1
@<TRIPOS>MOLECULE
*****
 37 39 0 0 0
SMALL
GASTEIGER

@<TRIPOS>ATOM
      1 C          63.2510   90.6749   11.2976 C.2     1  UNL1        0.2271
      2 O          62.7017   90.4890    9.9142 O.2     1  UNL1       -0.2748
      3 N          63.4547   89.4863   12.1897 N.am    1  UNL1       -0.2760
      4 C          63.1092   88.1118   11.6984 C.3     1  UNL1        0.1149
      5 C          63.3129   86.9233   12.5905 C.3     1  UNL1        0.1152
      6 N          63.8622   87.1092   13.9739 N.am    1  UNL1       -0.2726
      7 C          64.0659   85.9206   14.8660 C.2     1  UNL1        0.2491
      8 O          64.6152   86.1066   16.2494 O.2     1  UNL1       -0.2699
      9 C          64.2078   88.4837   14.4652 C.3     1  UNL1        0.1152
     10 C          64.0040   89.6722   13.5731 C.3     1  UNL1        0.1149
     11 C          63.7204   84.5462   14.3747 C.ar    1  UNL1        0.0537
     12 C          64.5696   83.8884   13.3278 C.ar    1  UNL1        0.0059
     13 C          64.2240   82.5138   12.8365 C.ar    1  UNL1        0.0200
     14 C          63.0292   81.7972   13.3921 C.ar    1  UNL1        0.1217
     15 C          62.1799   82.4550   14.4391 C.ar    1  UNL1        0.0200
     16 C          62.5255   83.8294   14.9304 C.ar    1  UNL1        0.0059
     17 S          62.6836   80.4227   12.9009 S.O2    1  UNL1        0.0572
     18 N          62.3381   79.0482   12.4095 N.3     1  UNL1       -0.2035
     19 O          62.5361   79.9533   14.3178 O.2     1  UNL1       -0.1532
     20 O          62.8312   80.8921   11.4839 O.2     1  UNL1       -0.1532
     21 H          62.1651   78.4357   13.2066 H       1  UNL1        0.1442
     22 H          63.1133   78.6791   11.8589 H       1  UNL1        0.1442
     23 C          63.5966   92.0494   11.7889 C.3     1  UNL1        0.1010
     24 N          64.8344   94.0334   10.6568 N.3     1  UNL1       -0.3215
     25 C          64.8731   92.7038   11.3502 C.3     1  UNL1        0.0644
     26 H          63.8665   94.3424   10.5678 H       1  UNL1        0.1188
     27 H          65.2499   93.9454    9.7295 H       1  UNL1        0.1188
     28 C          66.1881   92.0286   11.6048 C.3     1  UNL1        0.0447
     29 C          66.8105   92.0889   12.9682 C.ar    1  UNL1        0.0090
     30 C          65.9650   92.4090   14.1652 C.ar    1  UNL1        0.0300
     31 C          66.5874   92.4693   15.5286 C.ar    1  UNL1        0.1672
     32 F          65.7420   92.7893   16.7255 F       1  UNL1       -0.2018
     33 C          68.0554   92.2096   15.6950 C.ar    1  UNL1        0.1696
     34 F          68.6778   92.2700   17.0584 F       1  UNL1       -0.2017
     35 C          68.9009   91.8896   14.4981 C.ar    1  UNL1        0.0612
     36 C          68.2785   91.8293   13.1346 C.ar    1  UNL1        0.1386
     37 F          69.1240   91.5092   11.9377 F       1  UNL1       -0.2044
@<TRIPOS>BOND
     1    25    24    1
     2    25    23    1
     3    23     1    1
     4     1     2    2
     5     1     3   am
     6     3     4    1
     7     4     5    1
     8     5     6    1
     9     6     7   am
    10     7     8    2
    11     7    11    1
    12    11    12   ar
    13    12    13   ar
    14    13    14   ar
    15    14    17    1
    16    17    18    1
    17    17    19    2
    18    17    20    2
    19    14    15   ar
    20    15    16   ar
    21     6     9    1
    22     9    10    1
    23    25    28    1
    24    28    29    1
    25    29    30   ar
    26    30    31   ar
    27    31    32    1
    28    31    33   ar
    29    33    34    1
    30    33    35   ar
    31    35    36   ar
    32    36    37    1
    33    10     3    1
    34    36    29   ar
    35    16    11   ar
    36    24    26    1
    37    24    27    1
    38    18    21    1
    39    18    22    1
@<TRIPOS>MOLECULE
*****
 37 39 0 0 0
SMALL
GASTEIGER

@<TRIPOS>ATOM
      1 C          64.7790   90.9465   13.9557 C.2     1  UNL1        0.2271
      2 O          65.5346   90.7347   15.2341 O.2     1  UNL1       -0.2748
      3 N          64.1430   89.7805   13.2585 N.am    1  UNL1       -0.2760
      4 C          64.2626   88.4029   13.8396 C.3     1  UNL1        0.1149
      5 C          63.6266   87.2370   13.1424 C.3     1  UNL1        0.1152
      6 N          62.8710   87.4488   11.8640 N.am    1  UNL1       -0.2726
      7 C          62.2349   86.2828   11.1668 C.2     1  UNL1        0.2491
      8 O          61.4793   86.4945    9.8884 O.2     1  UNL1       -0.2699
      9 C          62.7514   88.8264   11.2829 C.3     1  UNL1        0.1152
     10 C          63.3874   89.9923   11.9801 C.3     1  UNL1        0.1149
     11 C          62.3545   84.9051   11.7479 C.ar    1  UNL1        0.0537
     12 C          62.1629   84.6931   13.2205 C.ar    1  UNL1        0.0059
     13 C          62.2825   83.3153   13.8016 C.ar    1  UNL1        0.0200
     14 C          62.5937   82.1498   12.9102 C.ar    1  UNL1        0.1217
     15 C          62.7853   82.3619   11.4377 C.ar    1  UNL1        0.0200
     16 C          62.6657   83.7395   10.8566 C.ar    1  UNL1        0.0059
     17 S          62.7133   80.7721   13.4914 S.O2    1  UNL1        0.0572
     18 N          62.8329   79.3944   14.0725 N.3     1  UNL1       -0.2035
     19 O          62.6466   81.3496   14.8741 O.2     1  UNL1       -0.1532
     20 O          62.7800   80.1946   12.1086 O.2     1  UNL1       -0.1532
     21 H          62.8172   79.4524   15.0907 H       1  UNL1        0.1442
     22 H          63.7107   78.9726   13.7694 H       1  UNL1        0.1442
     23 C          64.6594   92.3241   13.3746 C.3     1  UNL1        0.1010
     24 N          66.3916   93.4416   14.9561 N.3     1  UNL1       -0.3215
     25 C          65.7449   93.3330   13.6070 C.3     1  UNL1        0.0644
     26 H          65.9740   92.7596   15.5892 H       1  UNL1        0.1188
     27 H          66.2493   94.3812   15.3267 H       1  UNL1        0.1188
     28 C          66.1837   94.2332   12.4903 C.3     1  UNL1        0.0447
     29 C          66.9471   93.6697   11.3286 C.ar    1  UNL1        0.0090
     30 C          66.8895   94.3493    9.9926 C.ar    1  UNL1        0.0300
     31 C          67.6529   93.7858    8.8309 C.ar    1  UNL1        0.1672
     32 F          67.5952   94.4654    7.4950 F       1  UNL1       -0.2018
     33 C          68.4740   92.5426    9.0051 C.ar    1  UNL1        0.1696
     34 F          69.2374   91.9791    7.8434 F       1  UNL1       -0.2017
     35 C          68.5317   91.8630   10.3411 C.ar    1  UNL1        0.0612
     36 C          67.7682   92.4265   11.5028 C.ar    1  UNL1        0.1386
     37 F          67.8259   91.7469   12.8388 F       1  UNL1       -0.2044
@<TRIPOS>BOND
     1    25    24    1
     2    25    23    1
     3    23     1    1
     4     1     2    2
     5     1     3   am
     6     3     4    1
     7     4     5    1
     8     5     6    1
     9     6     7   am
    10     7     8    2
    11     7    11    1
    12    11    12   ar
    13    12    13   ar
    14    13    14   ar
    15    14    17    1
    16    17    18    1
    17    17    19    2
    18    17    20    2
    19    14    15   ar
    20    15    16   ar
    21     6     9    1
    22     9    10    1
    23    25    28    1
    24    28    29    1
    25    29    30   ar
    26    30    31   ar
    27    31    32    1
    28    31    33   ar
    29    33    34    1
    30    33    35   ar
    31    35    36   ar
    32    36    37    1
    33    10     3    1
    34    36    29   ar
    35    16    11   ar
    36    24    26    1
    37    24    27    1
    38    18    21    1
    39    18    22    1
@<TRIPOS>MOLECULE
*****
 37 39 0 0 0
SMALL
GASTEIGER

@<TRIPOS>ATOM
      1 C          60.4910   88.8603   11.0909 C.2     1  UNL1        0.2271
      2 O          60.1389   88.1637   12.3718 O.2     1  UNL1       -0.2748
      3 N          61.6975   89.7495   11.0278 N.am    1  UNL1       -0.2760
      4 C          62.5518   89.9419   12.2457 C.3     1  UNL1        0.1149
      5 C          63.7582   90.8310   12.1826 C.3     1  UNL1        0.1152
      6 N          64.1103   91.5277   10.9017 N.am    1  UNL1       -0.2726
      7 C          65.3168   92.4168   10.8387 C.2     1  UNL1        0.2491
      8 O          65.6689   93.1135    9.5578 O.2     1  UNL1       -0.2699
      9 C          63.2560   91.3352    9.6839 C.3     1  UNL1        0.1152
     10 C          62.0496   90.4461    9.7470 C.3     1  UNL1        0.1149
     11 C          66.1711   92.6092   12.0565 C.ar    1  UNL1        0.0537
     12 C          65.8162   93.6637   13.0626 C.ar    1  UNL1        0.0059
     13 C          66.6706   93.8561   14.2804 C.ar    1  UNL1        0.0200
     14 C          67.8797   92.9941   14.4921 C.ar    1  UNL1        0.1217
     15 C          68.2346   91.9396   13.4860 C.ar    1  UNL1        0.0200
     16 C          67.3803   91.7472   12.2682 C.ar    1  UNL1        0.0059
     17 S          68.7340   93.1865   15.7100 S.O2    1  UNL1        0.0572
     18 N          69.5884   93.3790   16.9278 N.3     1  UNL1       -0.2035
     19 O          67.5012   93.3395   16.5506 O.2     1  UNL1       -0.1532
     20 O          69.9668   93.0336   14.8693 O.2     1  UNL1       -0.1532
     21 H          68.9917   93.5207   17.7428 H       1  UNL1        0.1442
     22 H          70.1863   94.1951   16.7982 H       1  UNL1        0.1442
     23 C          59.6367   88.6679    9.8731 C.3     1  UNL1        0.1010
     24 N          58.7138   86.7225    8.4191 N.3     1  UNL1       -0.3215
     25 C          59.8759   87.4970    8.9664 C.3     1  UNL1        0.0644
     26 H          57.8431   87.1271    8.7637 H       1  UNL1        0.1188
     27 H          58.7802   85.7507    8.7216 H       1  UNL1        0.1188
     28 C          61.2773   87.1007    8.6072 C.3     1  UNL1        0.0447
     29 C          61.9687   86.0123    9.3735 C.ar    1  UNL1        0.0090
     30 C          61.7225   85.8584   10.8452 C.ar    1  UNL1        0.0300
     31 C          62.4138   84.7700   11.6115 C.ar    1  UNL1        0.1672
     32 F          62.1676   84.6162   13.0831 F       1  UNL1       -0.2018
     33 C          63.3515   83.8354   10.9062 C.ar    1  UNL1        0.1696
     34 F          64.0428   82.7470   11.6726 F       1  UNL1       -0.2017
     35 C          63.5977   83.9893    9.4346 C.ar    1  UNL1        0.0612
     36 C          62.9063   85.0777    8.6682 C.ar    1  UNL1        0.1386
     37 F          63.1525   85.2315    7.1966 F       1  UNL1       -0.2044
@<TRIPOS>BOND
     1    25    24    1
     2    25    23    1
     3    23     1    1
     4     1     2    2
     5     1     3   am
     6     3     4    1
     7     4     5    1
     8     5     6    1
     9     6     7   am
    10     7     8    2
    11     7    11    1
    12    11    12   ar
    13    12    13   ar
    14    13    14   ar
    15    14    17    1
    16    17    18    1
    17    17    19    2
    18    17    20    2
    19    14    15   ar
    20    15    16   ar
    21     6     9    1
    22     9    10    1
    23    25    28    1
    24    28    29    1
    25    29    30   ar
    26    30    31   ar
    27    31    32    1
    28    31    33   ar
    29    33    34    1
    30    33    35   ar
    31    35    36   ar
    32    36    37    1
    33    10     3    1
    34    36    29   ar
    35    16    11   ar
    36    24    26    1
    37    24    27    1
    38    18    21    1
    39    18    22    1
@<TRIPOS>MOLECULE
*****
 37 39 0 0 0
SMALL
GASTEIGER

@<TRIPOS>ATOM
      1 C          62.7427   89.9643   11.7171 C.2     1  UNL1        0.2271
      2 O          62.0849   90.0744   10.3736 O.2     1  UNL1       -0.2748
      3 N          63.0763   88.6147   12.2805 N.am    1  UNL1       -0.2760
      4 C          62.7521   87.3753   11.5004 C.3     1  UNL1        0.1149
      5 C          63.0858   86.0258   12.0639 C.3     1  UNL1        0.1152
      6 N          63.7436   85.9157   13.4074 N.am    1  UNL1       -0.2726
      7 C          64.0772   84.5661   13.9709 C.2     1  UNL1        0.2491
      8 O          64.7350   84.4561   15.3144 O.2     1  UNL1       -0.2699
      9 C          64.0678   87.1552   14.1876 C.3     1  UNL1        0.1152
     10 C          63.7341   88.5047   13.6241 C.3     1  UNL1        0.1149
     11 C          63.7530   83.3267   13.1907 C.ar    1  UNL1        0.0537
     12 C          62.7852   82.3235   13.7447 C.ar    1  UNL1        0.0059
     13 C          62.4610   81.0840   12.9645 C.ar    1  UNL1        0.0200
     14 C          63.1047   80.8478   11.6304 C.ar    1  UNL1        0.1217
     15 C          64.0725   81.8510   11.0764 C.ar    1  UNL1        0.0200
     16 C          64.3967   83.0904   11.8565 C.ar    1  UNL1        0.0059
     17 S          62.7805   79.6083   10.8502 S.O2    1  UNL1        0.0572
     18 N          62.4563   78.3688   10.0700 N.3     1  UNL1       -0.2035
     19 O          62.4988   78.8770   12.1292 O.2     1  UNL1       -0.1532
     20 O          63.0622   80.3396    9.5713 O.2     1  UNL1       -0.1532
     21 H          62.2022   77.6190   10.7131 H       1  UNL1        0.1442
     22 H          63.2711   78.0875    9.5247 H       1  UNL1        0.1442
     23 C          63.0669   91.2037   12.4973 C.3     1  UNL1        0.1010
     24 N          65.1126   92.6617   11.8341 N.3     1  UNL1       -0.3215
     25 C          64.4968   91.6068   12.7048 C.3     1  UNL1        0.0644
     26 H          64.4216   92.9928   11.1608 H       1  UNL1        0.1188
     27 H          65.9110   92.2680   11.3361 H       1  UNL1        0.1188
     28 C          65.3108   90.9551   13.7830 C.3     1  UNL1        0.0447
     29 C          66.4487   91.6989   14.4169 C.ar    1  UNL1        0.0090
     30 C          67.8049   91.6828   13.7761 C.ar    1  UNL1        0.0300
     31 C          68.9428   92.4267   14.4100 C.ar    1  UNL1        0.1672
     32 F          70.2989   92.4106   13.7692 F       1  UNL1       -0.2018
     33 C          68.7245   93.1867   15.6847 C.ar    1  UNL1        0.1696
     34 F          69.8624   93.9306   16.3186 F       1  UNL1       -0.2017
     35 C          67.3684   93.2028   16.3254 C.ar    1  UNL1        0.0612
     36 C          66.2304   92.4589   15.6915 C.ar    1  UNL1        0.1386
     37 F          64.8743   92.4751   16.3323 F       1  UNL1       -0.2044
@<TRIPOS>BOND
     1    25    24    1
     2    25    23    1
     3    23     1    1
     4     1     2    2
     5     1     3   am
     6     3     4    1
     7     4     5    1
     8     5     6    1
     9     6     7   am
    10     7     8    2
    11     7    11    1
    12    11    12   ar
    13    12    13   ar
    14    13    14   ar
    15    14    17    1
    16    17    18    1
    17    17    19    2
    18    17    20    2
    19    14    15   ar
    20    15    16   ar
    21     6     9    1
    22     9    10    1
    23    25    28    1
    24    28    29    1
    25    29    30   ar
    26    30    31   ar
    27    31    32    1
    28    31    33   ar
    29    33    34    1
    30    33    35   ar
    31    35    36   ar
    32    36    37    1
    33    10     3    1
    34    36    29   ar
    35    16    11   ar
    36    24    26    1
    37    24    27    1
    38    18    21    1
    39    18    22    1
@<TRIPOS>MOLECULE
*****
 37 39 0 0 0
SMALL
GASTEIGER

@<TRIPOS>ATOM
      1 C          63.4532   87.6208   13.6276 C.2     1  UNL1        0.2271
      2 O          62.8270   87.0709   12.3805 O.2     1  UNL1       -0.2748
      3 N          64.1429   88.9525   13.5961 N.am    1  UNL1       -0.2760
      4 C          64.2064   89.7342   12.3175 C.3     1  UNL1        0.1149
      5 C          64.8961   91.0658   12.2860 C.3     1  UNL1        0.1152
      6 N          65.5224   91.6158   13.5331 N.am    1  UNL1       -0.2726
      7 C          66.2121   92.9475   13.5016 C.2     1  UNL1        0.2491
      8 O          66.8383   93.4975   14.7488 O.2     1  UNL1       -0.2699
      9 C          65.4589   90.8341   14.8118 C.3     1  UNL1        0.1152
     10 C          64.7692   89.5025   14.8432 C.3     1  UNL1        0.1149
     11 C          66.2756   93.7292   12.2230 C.ar    1  UNL1        0.0537
     12 C          66.1096   95.2198   12.2462 C.ar    1  UNL1        0.0059
     13 C          66.1731   96.0014   10.9674 C.ar    1  UNL1        0.0200
     14 C          66.4025   95.2925    9.6656 C.ar    1  UNL1        0.1217
     15 C          66.5684   93.8019    9.6425 C.ar    1  UNL1        0.0200
     16 C          66.5049   93.0202   10.9211 C.ar    1  UNL1        0.0059
     17 S          66.4660   96.0742    8.3870 S.O2    1  UNL1        0.0572
     18 N          66.5294   96.8559    7.1083 N.3     1  UNL1       -0.2035
     19 O          67.7575   95.3965    8.0368 O.2     1  UNL1       -0.1532
     20 O          65.1744   96.7518    8.7372 O.2     1  UNL1       -0.1532
     21 H          67.3718   96.5986    6.5940 H       1  UNL1        0.1442
     22 H          66.5518   97.8533    7.3204 H       1  UNL1        0.1442
     23 C          63.3897   86.8392   14.9062 C.3     1  UNL1        0.1010
     24 N          65.3977   85.2091   15.1535 N.3     1  UNL1       -0.3215
     25 C          63.9286   85.4402   14.9576 C.3     1  UNL1        0.0644
     26 H          65.8756   86.1068   15.2323 H       1  UNL1        0.1188
     27 H          65.7703   84.6946   14.3555 H       1  UNL1        0.1188
     28 C          62.9984   84.2724   14.8132 C.3     1  UNL1        0.0447
     29 C          63.0692   83.4038   13.5924 C.ar    1  UNL1        0.0090
     30 C          63.8145   83.8749   12.3788 C.ar    1  UNL1        0.0300
     31 C          63.8852   83.0063   11.1580 C.ar    1  UNL1        0.1672
     32 F          64.6305   83.4774    9.9445 F       1  UNL1       -0.2018
     33 C          63.2107   81.6665   11.1506 C.ar    1  UNL1        0.1696
     34 F          63.2814   80.7979    9.9298 F       1  UNL1       -0.2017
     35 C          62.4654   81.1954   12.3641 C.ar    1  UNL1        0.0612
     36 C          62.3946   82.0640   13.5850 C.ar    1  UNL1        0.1386
     37 F          61.6494   81.5929   14.7985 F       1  UNL1       -0.2044
@<TRIPOS>BOND
     1    25    24    1
     2    25    23    1
     3    23     1    1
     4     1     2    2
     5     1     3   am
     6     3     4    1
     7     4     5    1
     8     5     6    1
     9     6     7   am
    10     7     8    2
    11     7    11    1
    12    11    12   ar
    13    12    13   ar
    14    13    14   ar
    15    14    17    1
    16    17    18    1
    17    17    19    2
    18    17    20    2
    19    14    15   ar
    20    15    16   ar
    21     6     9    1
    22     9    10    1
    23    25    28    1
    24    28    29    1
    25    29    30   ar
    26    30    31   ar
    27    31    32    1
    28    31    33   ar
    29    33    34    1
    30    33    35   ar
    31    35    36   ar
    32    36    37    1
    33    10     3    1
    34    36    29   ar
    35    16    11   ar
    36    24    26    1
    37    24    27    1
    38    18    21    1
    39    18    22    1
@<TRIPOS>MOLECULE
*****
 37 39 0 0 0
SMALL
GASTEIGER

@<TRIPOS>ATOM
      1 C          60.8956   89.5089    9.2586 C.2     1  UNL1        0.2271
      2 O          61.5687   90.1191    8.0650 O.2     1  UNL1       -0.2748
      3 N          61.4929   89.6777   10.6242 N.am    1  UNL1       -0.2760
      4 C          62.7632   90.4566   10.7962 C.3     1  UNL1        0.1149
      5 C          63.3604   90.6253   12.1618 C.3     1  UNL1        0.1152
      6 N          62.6874   90.0152   13.3553 N.am    1  UNL1       -0.2726
      7 C          63.2846   90.1839   14.7210 C.2     1  UNL1        0.2491
      8 O          62.6116   89.5737   15.9146 O.2     1  UNL1       -0.2699
      9 C          61.4171   89.2362   13.1834 C.3     1  UNL1        0.1152
     10 C          60.8198   89.0675   11.8178 C.3     1  UNL1        0.1149
     11 C          64.5549   90.9629   14.8929 C.ar    1  UNL1        0.0537
     12 C          65.6495   90.8471   13.8738 C.ar    1  UNL1        0.0059
     13 C          66.9198   91.6261   14.0458 C.ar    1  UNL1        0.0200
     14 C          67.0955   92.5208   15.2369 C.ar    1  UNL1        0.1217
     15 C          66.0010   92.6365   16.2560 C.ar    1  UNL1        0.0200
     16 C          64.7307   91.8576   16.0840 C.ar    1  UNL1        0.0059
     17 S          68.3658   93.2997   15.4089 S.O2    1  UNL1        0.0572
     18 N          69.6362   94.0787   15.5808 N.3     1  UNL1       -0.2035
     19 O          67.7634   94.0244   16.5758 O.2     1  UNL1       -0.1532
     20 O          68.9682   92.5750   14.2419 O.2     1  UNL1       -0.1532
     21 H          69.5379   94.7199   16.3680 H       1  UNL1        0.1442
     22 H          69.8269   94.6100   14.7312 H       1  UNL1        0.1442
     23 C          59.6253   88.7300    9.0867 C.3     1  UNL1        0.1010
     24 N          58.3497   86.7267    8.0330 N.3     1  UNL1       -0.3215
     25 C          59.6395   87.4264    8.3447 C.3     1  UNL1        0.0644
     26 H          57.5696   87.2742    8.3963 H       1  UNL1        0.1188
     27 H          58.3496   85.8042    8.4682 H       1  UNL1        0.1188
     28 C          60.9433   86.8224    7.9143 C.3     1  UNL1        0.0447
     29 C          61.7121   85.9465    8.8586 C.ar    1  UNL1        0.0090
     30 C          61.4412   86.0134   10.3325 C.ar    1  UNL1        0.0300
     31 C          62.2100   85.1375   11.2768 C.ar    1  UNL1        0.1672
     32 F          61.9391   85.2044   12.7506 F       1  UNL1       -0.2018
     33 C          63.2496   84.1947   10.7474 C.ar    1  UNL1        0.1696
     34 F          64.0183   83.3188   11.6917 F       1  UNL1       -0.2017
     35 C          63.5204   84.1278    9.2736 C.ar    1  UNL1        0.0612
     36 C          62.7517   85.0037    8.3292 C.ar    1  UNL1        0.1386
     37 F          63.0225   84.9368    6.8554 F       1  UNL1       -0.2044
@<TRIPOS>BOND
     1    25    24    1
     2    25    23    1
     3    23     1    1
     4     1     2    2
     5     1     3   am
     6     3     4    1
     7     4     5    1
     8     5     6    1
     9     6     7   am
    10     7     8    2
    11     7    11    1
    12    11    12   ar
    13    12    13   ar
    14    13    14   ar
    15    14    17    1
    16    17    18    1
    17    17    19    2
    18    17    20    2
    19    14    15   ar
    20    15    16   ar
    21     6     9    1
    22     9    10    1
    23    25    28    1
    24    28    29    1
    25    29    30   ar
    26    30    31   ar
    27    31    32    1
    28    31    33   ar
    29    33    34    1
    30    33    35   ar
    31    35    36   ar
    32    36    37    1
    33    10     3    1
    34    36    29   ar
    35    16    11   ar
    36    24    26    1
    37    24    27    1
    38    18    21    1
    39    18    22    1
@<TRIPOS>MOLECULE
*****
 37 39 0 0 0
SMALL
GASTEIGER

@<TRIPOS>ATOM
      1 C          62.2334   93.1703    1.9158 C.2     1  UNL1        0.2271
      2 O          63.7090   92.9010    1.9144 O.2     1  UNL1       -0.2748
      3 N          61.3470   92.4859    2.9139 N.am    1  UNL1       -0.2760
      4 C          61.9363   91.5321    3.9104 C.3     1  UNL1        0.1149
      5 C          61.0500   90.8477    4.9084 C.3     1  UNL1        0.1152
      6 N          59.5744   91.1170    4.9098 N.am    1  UNL1       -0.2726
      7 C          58.6881   90.4325    5.9078 C.2     1  UNL1        0.2491
      8 O          57.2124   90.7018    5.9093 O.2     1  UNL1       -0.2699
      9 C          58.9851   92.0707    3.9133 C.3     1  UNL1        0.1152
     10 C          59.8714   92.7552    2.9153 C.3     1  UNL1        0.1149
     11 C          59.2774   89.4788    6.9043 C.ar    1  UNL1        0.0537
     12 C          59.1062   88.0002    6.7194 C.ar    1  UNL1        0.0059
     13 C          59.6956   87.0464    7.7160 C.ar    1  UNL1        0.0200
     14 C          60.4561   87.5714    8.8975 C.ar    1  UNL1        0.1217
     15 C          60.6272   89.0501    9.0825 C.ar    1  UNL1        0.0200
     16 C          60.0379   90.0038    8.0859 C.ar    1  UNL1        0.0059
     17 S          61.0454   86.6177    9.8940 S.O2    1  UNL1        0.0572
     18 N          61.6347   85.6639   10.8906 N.3     1  UNL1       -0.2035
     19 O          61.6776   85.8413    8.7771 O.2     1  UNL1       -0.1532
     20 O          60.4132   87.3941   11.0109 O.2     1  UNL1       -0.1532
     21 H          62.1736   84.9500   10.4004 H       1  UNL1        0.1442
     22 H          60.8849   85.2198   11.4207 H       1  UNL1        0.1442
     23 C          61.6440   94.1241    0.9193 C.3     1  UNL1        0.1010
     24 N          63.5008   94.8212   -0.7589 N.3     1  UNL1       -0.3215
     25 C          62.1783   94.1700   -0.4816 C.3     1  UNL1        0.0644
     26 H          63.8946   95.1758    0.1127 H       1  UNL1        0.1188
     27 H          63.3692   95.5939   -1.4117 H       1  UNL1        0.1188
     28 C          61.3901   93.5648   -1.6051 C.3     1  UNL1        0.0447
     29 C          59.8911   93.6118   -1.5800 C.ar    1  UNL1        0.0090
     30 C          59.1643   94.7337   -2.2607 C.ar    1  UNL1        0.0300
     31 C          57.6653   94.7806   -2.2356 C.ar    1  UNL1        0.1672
     32 F          56.9386   95.9024   -2.9162 F       1  UNL1       -0.2018
     33 C          56.8930   93.7057   -1.5298 C.ar    1  UNL1        0.1696
     34 F          55.3939   93.7527   -1.5046 F       1  UNL1       -0.2017
     35 C          57.6197   92.5839   -0.8491 C.ar    1  UNL1        0.0612
     36 C          59.1188   92.5369   -0.8742 C.ar    1  UNL1        0.1386
     37 F          59.8455   91.4151   -0.1935 F       1  UNL1       -0.2044
@<TRIPOS>BOND
     1    25    24    1
     2    25    23    1
     3    23     1    1
     4     1     2    2
     5     1     3   am
     6     3     4    1
     7     4     5    1
     8     5     6    1
     9     6     7   am
    10     7     8    2
    11     7    11    1
    12    11    12   ar
    13    12    13   ar
    14    13    14   ar
    15    14    17    1
    16    17    18    1
    17    17    19    2
    18    17    20    2
    19    14    15   ar
    20    15    16   ar
    21     6     9    1
    22     9    10    1
    23    25    28    1
    24    28    29    1
    25    29    30   ar
    26    30    31   ar
    27    31    32    1
    28    31    33   ar
    29    33    34    1
    30    33    35   ar
    31    35    36   ar
    32    36    37    1
    33    10     3    1
    34    36    29   ar
    35    16    11   ar
    36    24    26    1
    37    24    27    1
    38    18    21    1
    39    18    22    1
