@<TRIPOS>MOLECULE
*****
 29 33 0 0 0
SMALL
GASTEIGER

@<TRIPOS>ATOM
      1 C          60.1611   87.9871    8.2056 C.ar    1  UNL1        0.1416
      2 C          60.7363   89.1332    8.9839 C.ar    1  UNL1        0.0369
      3 C          61.5823   88.8685   10.1939 C.ar    1  UNL1        0.0059
      4 C          61.8531   87.4578   10.6258 C.ar    1  UNL1        0.0564
      5 C          61.2780   86.3117    9.8476 C.ar    1  UNL1        0.1481
      6 C          60.4320   86.5763    8.6375 C.ar    1  UNL1        0.0741
      7 O          61.5487   84.9009   10.2794 O.3     1  UNL1       -0.4537
      8 C          62.3947   84.6363   11.4895 C.ar    1  UNL1        0.1481
      9 C          62.6655   83.2256   11.9214 C.ar    1  UNL1        0.0741
     10 C          63.5115   82.9610   13.1315 C.ar    1  UNL1        0.1416
     11 C          64.0867   84.1071   13.9097 C.ar    1  UNL1        0.0369
     12 C          63.8158   85.5178   13.4778 C.ar    1  UNL1        0.0059
     13 C          62.9699   85.7825   12.2677 C.ar    1  UNL1        0.0564
     14 C          62.6991   87.1932   11.8359 C.3     1  UNL1        0.1981
     15 O          63.5588   87.0843   13.0602 O.3     1  UNL1       -0.4397
     16 C          63.9065   88.4732   13.5074 C.2     1  UNL1        0.3417
     17 O          64.7508   88.8319   14.6942 O.2     1  UNL1       -0.2449
     18 C          63.2618   89.4405   12.5595 C.ar    1  UNL1        0.0756
     19 C          62.9095   90.5702   12.0214 C.ar    1  UNL1        0.0063
     20 C          62.5094   90.9477   11.4406 C.ar    1  UNL1        0.0002
     21 C          62.1114   90.5258   10.8896 C.ar    1  UNL1       -0.0002
     22 C          62.1135   89.7264   10.9194 C.ar    1  UNL1       -0.0001
     23 C          62.5155   88.6494   11.5264 C.ar    1  UNL1        0.0280
     24 O          59.3152   88.2517    6.9955 O.3     1  UNL1       -0.4754
     25 C          59.7024   90.3842    5.5630 C.3     1  UNL1        0.0512
     26 C          58.9428   89.6591    6.6340 C.3     1  UNL1        0.2055
     27 O          63.7823   81.5502   13.5633 O.3     1  UNL1       -0.4754
     28 C          62.6448   80.5884   13.7395 C.3     1  UNL1        0.2055
     29 C          61.2989   81.0898   14.1720 C.3     1  UNL1        0.0512
@<TRIPOS>BOND
     1    25    26    1
     2    26    24    1
     3    24     1    1
     4     1     2   ar
     5     2     3   ar
     6     3     4   ar
     7     4     5   ar
     8     5     6   ar
     9     5     7    1
    10     7     8    1
    11     8     9   ar
    12     9    10   ar
    13    10    27    1
    14    27    28    1
    15    28    29    1
    16    10    11   ar
    17    11    12   ar
    18    12    13   ar
    19    13    14    1
    20    14    15    1
    21    15    16    1
    22    16    17    2
    23    16    18    1
    24    18    19   ar
    25    19    20   ar
    26    20    21   ar
    27    21    22   ar
    28    22    23   ar
    29     6     1   ar
    30    13     8   ar
    31    23    14    1
    32    14     4    1
    33    23    18   ar
@<TRIPOS>MOLECULE
*****
 29 33 0 0 0
SMALL
GASTEIGER

@<TRIPOS>ATOM
      1 C          63.4613   83.5717   13.4060 C.ar    1  UNL1        0.1416
      2 C          62.7347   83.8917   12.1334 C.ar    1  UNL1        0.0369
      3 C          62.5793   85.3184   11.6969 C.ar    1  UNL1        0.0059
      4 C          63.1503   86.4250   12.5331 C.ar    1  UNL1        0.0564
      5 C          63.8769   86.1050   13.8058 C.ar    1  UNL1        0.1481
      6 C          64.0324   84.6784   14.2422 C.ar    1  UNL1        0.0741
      7 O          64.4480   87.2116   14.6420 O.3     1  UNL1       -0.4537
      8 C          64.2926   88.6383   14.2056 C.ar    1  UNL1        0.1481
      9 C          64.8637   89.7449   15.0417 C.ar    1  UNL1        0.0741
     10 C          64.7082   91.1715   14.6053 C.ar    1  UNL1        0.1416
     11 C          63.9816   91.4916   13.3326 C.ar    1  UNL1        0.0369
     12 C          63.4105   90.3849   12.4964 C.ar    1  UNL1        0.0059
     13 C          63.5660   88.9582   12.9329 C.ar    1  UNL1        0.0564
     14 C          62.9949   87.8517   12.0966 C.3     1  UNL1        0.1981
     15 O          62.7620   89.2230   11.5353 O.3     1  UNL1       -0.4397
     16 C          61.9968   89.0754   10.2536 C.2     1  UNL1        0.3417
     17 O          61.5501   90.1940    9.3597 O.2     1  UNL1       -0.2449
     18 C          61.7569   87.6128   10.0228 C.ar    1  UNL1        0.0756
     19 C          61.3442   86.5191    9.4542 C.ar    1  UNL1        0.0063
     20 C          61.2996   85.7206    9.4749 C.ar    1  UNL1        0.0002
     21 C          61.6286   85.3172   10.0824 C.ar    1  UNL1       -0.0002
     22 C          62.0022   85.7123   10.6692 C.ar    1  UNL1       -0.0001
     23 C          62.3737   86.8565   11.1619 C.ar    1  UNL1        0.0280
     24 O          63.6167   82.1450   13.8425 O.3     1  UNL1       -0.4754
     25 C          61.2469   81.1000   14.0471 C.3     1  UNL1        0.0512
     26 C          62.6093   81.1173   13.4196 C.3     1  UNL1        0.2055
     27 O          65.2793   92.2781   15.4415 O.3     1  UNL1       -0.4754
     28 C          66.6404   92.8268   15.1312 C.3     1  UNL1        0.2055
     29 C          67.7693   92.6234   16.0979 C.3     1  UNL1        0.0512
@<TRIPOS>BOND
     1    25    26    1
     2    26    24    1
     3    24     1    1
     4     1     2   ar
     5     2     3   ar
     6     3     4   ar
     7     4     5   ar
     8     5     6   ar
     9     5     7    1
    10     7     8    1
    11     8     9   ar
    12     9    10   ar
    13    10    27    1
    14    27    28    1
    15    28    29    1
    16    10    11   ar
    17    11    12   ar
    18    12    13   ar
    19    13    14    1
    20    14    15    1
    21    15    16    1
    22    16    17    2
    23    16    18    1
    24    18    19   ar
    25    19    20   ar
    26    20    21   ar
    27    21    22   ar
    28    22    23   ar
    29     6     1   ar
    30    13     8   ar
    31    23    14    1
    32    14     4    1
    33    23    18   ar
@<TRIPOS>MOLECULE
*****
 29 33 0 0 0
SMALL
GASTEIGER

@<TRIPOS>ATOM
      1 C          63.4433   82.8875   12.7955 C.ar    1  UNL1        0.1416
      2 C          64.0041   83.9619   13.6793 C.ar    1  UNL1        0.0369
      3 C          63.7235   85.4041   13.3769 C.ar    1  UNL1        0.0059
      4 C          62.8821   85.7719   12.1908 C.ar    1  UNL1        0.0564
      5 C          62.3213   84.6975   11.3070 C.ar    1  UNL1        0.1481
      6 C          62.6019   83.2553   11.6093 C.ar    1  UNL1        0.0741
      7 O          61.4800   85.0651   10.1209 O.3     1  UNL1       -0.4537
      8 C          61.1994   86.5073    9.8185 C.ar    1  UNL1        0.1481
      9 C          60.3580   86.8751    8.6325 C.ar    1  UNL1        0.0741
     10 C          60.0774   88.3173    8.3301 C.ar    1  UNL1        0.1416
     11 C          60.6382   89.3917    9.2139 C.ar    1  UNL1        0.0369
     12 C          61.4796   89.0239   10.4001 C.ar    1  UNL1        0.0059
     13 C          61.7602   87.5817   10.7024 C.ar    1  UNL1        0.0564
     14 C          62.6015   87.2140   11.8885 C.3     1  UNL1        0.1981
     15 O          62.4071   88.6910   11.7128 O.3     1  UNL1       -0.4397
     16 C          63.1406   89.3899   12.8189 C.2     1  UNL1        0.3417
     17 O          63.2135   90.8733   13.0288 O.2     1  UNL1       -0.2449
     18 C          63.7884   88.3449   13.6782 C.ar    1  UNL1        0.0756
     19 C          64.4830   87.8166   14.6417 C.ar    1  UNL1        0.0063
     20 C          64.7588   87.1524   14.9920 C.ar    1  UNL1        0.0002
     21 C          64.5811   86.4352   14.6853 C.ar    1  UNL1       -0.0002
     22 C          64.1277   86.3822   14.0284 C.ar    1  UNL1       -0.0001
     23 C          63.4552   87.0002   13.1032 C.ar    1  UNL1        0.0280
     24 O          63.7239   81.4453   13.0978 O.3     1  UNL1       -0.4754
     25 C          61.3766   81.0824   14.1506 C.3     1  UNL1        0.0512
     26 C          62.6021   80.5285   13.4864 C.3     1  UNL1        0.2055
     27 O          59.2361   88.6850    7.1440 O.3     1  UNL1       -0.4754
     28 C          59.6233   89.8499    6.2820 C.3     1  UNL1        0.2055
     29 C          58.5642   90.6536    5.5875 C.3     1  UNL1        0.0512
@<TRIPOS>BOND
     1    25    26    1
     2    26    24    1
     3    24     1    1
     4     1     2   ar
     5     2     3   ar
     6     3     4   ar
     7     4     5   ar
     8     5     6   ar
     9     5     7    1
    10     7     8    1
    11     8     9   ar
    12     9    10   ar
    13    10    27    1
    14    27    28    1
    15    28    29    1
    16    10    11   ar
    17    11    12   ar
    18    12    13   ar
    19    13    14    1
    20    14    15    1
    21    15    16    1
    22    16    17    2
    23    16    18    1
    24    18    19   ar
    25    19    20   ar
    26    20    21   ar
    27    21    22   ar
    28    22    23   ar
    29     6     1   ar
    30    13     8   ar
    31    23    14    1
    32    14     4    1
    33    23    18   ar
