@<TRIPOS>MOLECULE
*****
 34 38 0 0 0
SMALL
GASTEIGER

@<TRIPOS>ATOM
      1 C          64.1802   83.0509   14.4666 C.3     1  UNL1        0.2159
      2 N          63.7292   84.2744   13.7249 N.am    1  UNL1       -0.1449
      3 C          64.1512   85.6347   14.1953 C.2     1  UNL1        0.3728
      4 N          65.0241   85.7717   15.4074 N.2     1  UNL1       -0.1329
      5 N          63.7003   86.8581   13.4535 N.pl3   1  UNL1       -0.2247
      6 C          62.8274   86.7210   12.2414 C.3     1  UNL1        0.1558
      7 C          62.2309   87.7378   11.3140 C.3     1  UNL1        0.1304
      8 N          61.4403   87.0059   10.2704 N.pl3   1  UNL1       -0.3037
      9 C          61.5481   85.5367   10.5528 C.3     1  UNL1        0.1050
     10 C          62.4054   85.3606   11.7710 C.3     1  UNL1        0.1497
     11 C          62.8563   84.1373   12.5127 C.2     1  UNL1        0.2919
     12 O          62.4344   82.7769   12.0423 O.2     1  UNL1       -0.2563
     13 H          65.3201   84.9688   15.8943 H       1  UNL1        0.3058
     14 H          63.9772   87.7509   13.7623 H       1  UNL1        0.2454
     15 C          60.6759   87.6330    9.1423 C.ar    1  UNL1        0.0481
     16 C          59.9530   86.7672    8.1535 C.ar    1  UNL1        0.0168
     17 C          59.1887   87.3944    7.0254 C.ar    1  UNL1        0.0309
     18 C          59.1473   88.8874    6.8862 C.ar    1  UNL1        0.1402
     19 F          58.3830   89.5145    5.7581 F       1  UNL1       -0.2042
     20 C          59.8702   89.7532    7.8750 C.ar    1  UNL1        0.0309
     21 C          60.6345   89.1259    9.0031 C.ar    1  UNL1        0.0168
     22 C          63.1672   88.1394   12.5914 C.ar    1  UNL1        0.0397
     23 C          64.0869   88.5801   13.6913 C.ar    1  UNL1        0.0057
     24 C          64.1350   90.0793   13.6825 C.ar    1  UNL1        0.0068
     25 C          63.2450   90.5652   12.5772 C.ar    1  UNL1        0.0352
     26 S          62.6468   89.3663   11.9028 S.2     1  UNL1       -0.0878
     27 C          64.9330   90.9413   14.6153 C.ar    1  UNL1        0.0012
     28 C          64.3109   91.4535   15.8804 C.ar    1  UNL1        0.0001
     29 C          65.1089   92.3155   16.8132 C.ar    1  UNL1        0.0007
     30 C          66.5292   92.6654   16.4809 C.ar    1  UNL1        0.0103
     31 C          67.1513   92.1532   15.2158 C.ar    1  UNL1        0.0684
     32 C          66.3533   91.2912   14.2830 C.ar    1  UNL1        0.0103
     33 C          68.5716   92.5030   14.8834 C.1     1  UNL1        0.1004
     34 N          69.9919   92.8527   14.5509 N.1     1  UNL1       -0.1908
@<TRIPOS>BOND
     1     1     2    1
     2     2     3    1
     3     3     4    2
     4     3     5    1
     5     5     6    1
     6     6    22    1
     7    22    23   ar
     8    23    24   ar
     9    24    27    1
    10    27    28   ar
    11    28    29   ar
    12    29    30   ar
    13    30    31   ar
    14    31    33    1
    15    33    34    3
    16    31    32   ar
    17    24    25   ar
    18    25    26   ar
    19     6     7    1
    20     7     8    1
    21     8    15    1
    22    15    16   ar
    23    16    17   ar
    24    17    18   ar
    25    18    19    1
    26    18    20   ar
    27    20    21   ar
    28     8     9    1
    29    10     9    1
    30    10    11    1
    31    11    12    2
    32    11     2   am
    33    10     6    1
    34    26    22   ar
    35    21    15   ar
    36    32    27   ar
    37     4    13    1
    38     5    14    1
@<TRIPOS>MOLECULE
*****
 34 38 0 0 0
SMALL
GASTEIGER

@<TRIPOS>ATOM
      1 C          59.7586   89.4867    8.0068 C.3     1  UNL1        0.2159
      2 N          60.5555   88.7930    9.0717 N.am    1  UNL1       -0.1449
      3 C          61.3616   89.5966   10.0485 C.2     1  UNL1        0.3728
      4 N          61.3708   91.0941    9.9606 N.2     1  UNL1       -0.1329
      5 N          62.1585   88.9029   11.1133 N.pl3   1  UNL1       -0.2247
      6 C          62.1492   87.4055   11.2012 C.3     1  UNL1        0.1558
      7 C          62.8307   86.4508   12.1360 C.3     1  UNL1        0.1304
      8 N          62.4458   85.0570   11.7369 N.pl3   1  UNL1       -0.3037
      9 C          61.5264   85.1504   10.5554 C.3     1  UNL1        0.1050
     10 C          61.3430   86.6019   10.2243 C.3     1  UNL1        0.1497
     11 C          60.5462   87.2956    9.1595 C.2     1  UNL1        0.2919
     12 O          59.7401   86.4920    8.1826 O.2     1  UNL1       -0.2563
     13 H          60.8478   91.5494    9.2618 H       1  UNL1        0.3058
     14 H          62.6875   89.4304   11.7545 H       1  UNL1        0.2454
     15 C          62.9005   83.7920   12.4023 C.ar    1  UNL1        0.0481
     16 C          63.4678   83.8366   13.7902 C.ar    1  UNL1        0.0168
     17 C          63.9225   82.5715   14.4556 C.ar    1  UNL1        0.0309
     18 C          63.8099   81.2617   13.7332 C.ar    1  UNL1        0.1402
     19 F          64.2646   79.9967   14.3987 F       1  UNL1       -0.2042
     20 C          63.2426   81.2171   12.3454 C.ar    1  UNL1        0.0309
     21 C          62.7879   82.4822   11.6800 C.ar    1  UNL1        0.0168
     22 C          62.9984   88.0726   12.2423 C.ar    1  UNL1        0.0397
     23 C          63.5326   89.4728   12.1797 C.ar    1  UNL1        0.0057
     24 C          64.3269   89.7221   13.4275 C.ar    1  UNL1        0.0068
     25 C          64.2836   88.4759   14.2613 C.ar    1  UNL1        0.0352
     26 S          63.4625   87.4564   13.5287 S.2     1  UNL1       -0.0878
     27 C          65.0394   90.9942   13.7797 C.ar    1  UNL1        0.0012
     28 C          65.4110   91.2757   15.2054 C.ar    1  UNL1        0.0001
     29 C          66.1235   92.5478   15.5576 C.ar    1  UNL1        0.0007
     30 C          66.4644   93.5385   14.4841 C.ar    1  UNL1        0.0103
     31 C          66.0927   93.2570   13.0585 C.ar    1  UNL1        0.0684
     32 C          65.3803   91.9849   12.7062 C.ar    1  UNL1        0.0103
     33 C          66.4336   94.2476   11.9849 C.1     1  UNL1        0.1004
     34 N          66.7745   95.2382   10.9113 N.1     1  UNL1       -0.1908
@<TRIPOS>BOND
     1     1     2    1
     2     2     3    1
     3     3     4    2
     4     3     5    1
     5     5     6    1
     6     6    22    1
     7    22    23   ar
     8    23    24   ar
     9    24    27    1
    10    27    28   ar
    11    28    29   ar
    12    29    30   ar
    13    30    31   ar
    14    31    33    1
    15    33    34    3
    16    31    32   ar
    17    24    25   ar
    18    25    26   ar
    19     6     7    1
    20     7     8    1
    21     8    15    1
    22    15    16   ar
    23    16    17   ar
    24    17    18   ar
    25    18    19    1
    26    18    20   ar
    27    20    21   ar
    28     8     9    1
    29    10     9    1
    30    10    11    1
    31    11    12    2
    32    11     2   am
    33    10     6    1
    34    26    22   ar
    35    21    15   ar
    36    32    27   ar
    37     4    13    1
    38     5    14    1
@<TRIPOS>MOLECULE
*****
 34 38 0 0 0
SMALL
GASTEIGER

@<TRIPOS>ATOM
      1 C          59.0179   88.0328    6.3914 C.3     1  UNL1        0.2159
      2 N          59.8282   87.9470    7.6508 N.am    1  UNL1       -0.1449
      3 C          60.2675   89.2008    8.3470 C.2     1  UNL1        0.3728
      4 N          59.8964   90.5407    7.7838 N.2     1  UNL1       -0.1329
      5 N          61.0778   89.1150    9.6064 N.pl3   1  UNL1       -0.2247
      6 C          61.4488   87.7751   10.1696 C.3     1  UNL1        0.1558
      7 C          62.2332   87.3798   11.3855 C.3     1  UNL1        0.1304
      8 N          62.2787   85.8815   11.4407 N.pl3   1  UNL1       -0.3037
      9 C          61.5224   85.3508   10.2590 C.3     1  UNL1        0.1050
     10 C          61.0095   86.5212    9.4734 C.3     1  UNL1        0.1497
     11 C          60.1992   86.6071    8.2140 C.2     1  UNL1        0.2919
     12 O          59.7599   85.3532    7.5177 O.2     1  UNL1       -0.2563
     13 H          59.3646   90.5971    6.9572 H       1  UNL1        0.3058
     14 H          61.3661   89.9380   10.0634 H       1  UNL1        0.2454
     15 C          62.9607   85.0583   12.4930 C.ar    1  UNL1        0.0481
     16 C          63.7416   85.7314   13.5825 C.ar    1  UNL1        0.0168
     17 C          64.4236   84.9081   14.6348 C.ar    1  UNL1        0.0309
     18 C          64.3247   83.4119   14.5975 C.ar    1  UNL1        0.1402
     19 F          65.0067   82.5887   15.6497 F       1  UNL1       -0.2042
     20 C          63.5438   82.7388   13.5079 C.ar    1  UNL1        0.0309
     21 C          62.8618   83.5621   12.4557 C.ar    1  UNL1        0.0168
     22 C          61.9569   88.9362   10.9719 C.ar    1  UNL1        0.0397
     23 C          63.2160   89.7072   10.7072 C.ar    1  UNL1        0.0057
     24 C          63.3324   90.7776   11.7516 C.ar    1  UNL1        0.0068
     25 C          62.1452   90.6681   12.6618 C.ar    1  UNL1        0.0352
     26 S          61.2951   89.5300   12.1799 S.2     1  UNL1       -0.0878
     27 C          64.4413   91.7812   11.8657 C.ar    1  UNL1        0.0012
     28 C          64.8581   92.5782   10.6653 C.ar    1  UNL1        0.0001
     29 C          65.9669   93.5819   10.7794 C.ar    1  UNL1        0.0007
     30 C          66.6591   93.7886   12.0940 C.ar    1  UNL1        0.0103
     31 C          66.2423   92.9916   13.2945 C.ar    1  UNL1        0.0684
     32 C          65.1334   91.9879   13.1803 C.ar    1  UNL1        0.0103
     33 C          66.9344   93.1983   14.6091 C.1     1  UNL1        0.1004
     34 N          67.6265   93.4048   15.9238 N.1     1  UNL1       -0.1908
@<TRIPOS>BOND
     1     1     2    1
     2     2     3    1
     3     3     4    2
     4     3     5    1
     5     5     6    1
     6     6    22    1
     7    22    23   ar
     8    23    24   ar
     9    24    27    1
    10    27    28   ar
    11    28    29   ar
    12    29    30   ar
    13    30    31   ar
    14    31    33    1
    15    33    34    3
    16    31    32   ar
    17    24    25   ar
    18    25    26   ar
    19     6     7    1
    20     7     8    1
    21     8    15    1
    22    15    16   ar
    23    16    17   ar
    24    17    18   ar
    25    18    19    1
    26    18    20   ar
    27    20    21   ar
    28     8     9    1
    29    10     9    1
    30    10    11    1
    31    11    12    2
    32    11     2   am
    33    10     6    1
    34    26    22   ar
    35    21    15   ar
    36    32    27   ar
    37     4    13    1
    38     5    14    1
@<TRIPOS>MOLECULE
*****
 34 38 0 0 0
SMALL
GASTEIGER

@<TRIPOS>ATOM
      1 C          59.1008   87.9342    6.3625 C.3     1  UNL1        0.2159
      2 N          59.8537   87.8284    7.6556 N.am    1  UNL1       -0.1449
      3 C          60.1861   89.0670    8.4334 C.2     1  UNL1        0.3728
      4 N          59.7657   90.4116    7.9183 N.2     1  UNL1       -0.1329
      5 N          60.9391   88.9611    9.7265 N.pl3   1  UNL1       -0.2247
      6 C          61.3595   87.6165   10.2416 C.3     1  UNL1        0.1558
      7 C          62.1064   87.2029   11.4749 C.3     1  UNL1        0.1304
      8 N          62.2356   85.7085   11.4591 N.pl3   1  UNL1       -0.3037
      9 C          61.5685   85.1986   10.2161 C.3     1  UNL1        0.1050
     10 C          61.0270   86.3779    9.4637 C.3     1  UNL1        0.1497
     11 C          60.2741   86.4838    8.1707 C.2     1  UNL1        0.2919
     12 O          59.9416   85.2451    7.3927 O.2     1  UNL1       -0.2563
     13 H          59.2716   90.4811    7.0696 H       1  UNL1        0.3058
     14 H          61.1573   89.7741   10.2371 H       1  UNL1        0.2454
     15 C          62.9130   84.8711   12.5030 C.ar    1  UNL1        0.0481
     16 C          62.7769   83.3776   12.4710 C.ar    1  UNL1        0.0168
     17 C          63.4544   82.5402   13.5150 C.ar    1  UNL1        0.0309
     18 C          64.2679   83.1962   14.5910 C.ar    1  UNL1        0.1402
     19 F          64.9453   82.3587   15.6349 F       1  UNL1       -0.2042
     20 C          64.4040   84.6897   14.6230 C.ar    1  UNL1        0.0309
     21 C          63.7266   85.5271   13.5790 C.ar    1  UNL1        0.0168
     22 C          61.7609   88.7609   11.1244 C.ar    1  UNL1        0.0397
     23 C          63.1528   89.2905   11.3030 C.ar    1  UNL1        0.0057
     24 C          63.0930   90.4335   12.2725 C.ar    1  UNL1        0.0068
     25 C          61.6641   90.6103   12.6931 C.ar    1  UNL1        0.0352
     26 S          60.8408   89.5765   11.9835 S.2     1  UNL1       -0.0878
     27 C          64.2577   91.2554   12.7395 C.ar    1  UNL1        0.0012
     28 C          64.8683   90.9949   14.0845 C.ar    1  UNL1        0.0001
     29 C          66.0329   91.8168   14.5515 C.ar    1  UNL1        0.0007
     30 C          66.5870   92.8993   13.6734 C.ar    1  UNL1        0.0103
     31 C          65.9764   93.1599   12.3283 C.ar    1  UNL1        0.0684
     32 C          64.8118   92.3380   11.8614 C.ar    1  UNL1        0.0103
     33 C          66.5304   94.2424   11.4501 C.1     1  UNL1        0.1004
     34 N          67.0844   95.3250   10.5720 N.1     1  UNL1       -0.1908
@<TRIPOS>BOND
     1     1     2    1
     2     2     3    1
     3     3     4    2
     4     3     5    1
     5     5     6    1
     6     6    22    1
     7    22    23   ar
     8    23    24   ar
     9    24    27    1
    10    27    28   ar
    11    28    29   ar
    12    29    30   ar
    13    30    31   ar
    14    31    33    1
    15    33    34    3
    16    31    32   ar
    17    24    25   ar
    18    25    26   ar
    19     6     7    1
    20     7     8    1
    21     8    15    1
    22    15    16   ar
    23    16    17   ar
    24    17    18   ar
    25    18    19    1
    26    18    20   ar
    27    20    21   ar
    28     8     9    1
    29    10     9    1
    30    10    11    1
    31    11    12    2
    32    11     2   am
    33    10     6    1
    34    26    22   ar
    35    21    15   ar
    36    32    27   ar
    37     4    13    1
    38     5    14    1
@<TRIPOS>MOLECULE
*****
 34 38 0 0 0
SMALL
GASTEIGER

@<TRIPOS>ATOM
      1 C          63.9077   80.8250   14.0886 C.3     1  UNL1        0.2159
      2 N          63.6180   82.2271   13.6411 N.am    1  UNL1       -0.1449
      3 C          64.1371   83.3898   14.4338 C.2     1  UNL1        0.3728
      4 N          64.9461   83.1505   15.6742 N.2     1  UNL1       -0.1329
      5 N          63.8474   84.7919   13.9863 N.pl3   1  UNL1       -0.2247
      6 C          63.0384   85.0311   12.7460 C.3     1  UNL1        0.1558
      7 C          62.5956   86.2917   12.0642 C.3     1  UNL1        0.1304
      8 N          61.8027   85.9080   10.8501 N.pl3   1  UNL1       -0.3037
      9 C          61.7555   84.4103   10.7815 C.3     1  UNL1        0.1050
     10 C          62.5193   83.8684   11.9532 C.3     1  UNL1        0.1497
     11 C          62.8091   82.4663   12.4008 C.2     1  UNL1        0.2919
     12 O          62.2899   81.3036   11.6081 O.2     1  UNL1       -0.2563
     13 H          65.1363   82.2303   15.9679 H       1  UNL1        0.3058
     14 H          64.1881   85.5550   14.5066 H       1  UNL1        0.2454
     15 C          61.1684   86.8556    9.8756 C.ar    1  UNL1        0.0481
     16 C          60.3780   86.3227    8.7174 C.ar    1  UNL1        0.0168
     17 C          59.7436   87.2704    7.7430 C.ar    1  UNL1        0.0309
     18 C          59.8997   88.7509    7.9266 C.ar    1  UNL1        0.1402
     19 F          59.2653   89.6985    6.9521 F       1  UNL1       -0.2042
     20 C          60.6901   89.2838    9.0847 C.ar    1  UNL1        0.0309
     21 C          61.3244   88.3361   10.0592 C.ar    1  UNL1        0.0168
     22 C          63.4885   86.2866   13.4326 C.ar    1  UNL1        0.0397
     23 C          63.7895   87.5964   12.7665 C.ar    1  UNL1        0.0057
     24 C          64.2036   88.5719   13.8281 C.ar    1  UNL1        0.0068
     25 C          64.1584   87.8650   15.1503 C.ar    1  UNL1        0.0352
     26 S          63.7164   86.4525   14.9058 S.2     1  UNL1       -0.0878
     27 C          64.5942   90.0030   13.6064 C.ar    1  UNL1        0.0012
     28 C          64.0614   90.7509   12.4204 C.ar    1  UNL1        0.0001
     29 C          64.4520   92.1821   12.1987 C.ar    1  UNL1        0.0007
     30 C          65.3756   92.8654   13.1631 C.ar    1  UNL1        0.0103
     31 C          65.9084   92.1176   14.3491 C.ar    1  UNL1        0.0684
     32 C          65.5178   90.6864   14.5708 C.ar    1  UNL1        0.0103
     33 C          66.8320   92.8009   15.3136 C.1     1  UNL1        0.1004
     34 N          67.7556   93.4842   16.2780 N.1     1  UNL1       -0.1908
@<TRIPOS>BOND
     1     1     2    1
     2     2     3    1
     3     3     4    2
     4     3     5    1
     5     5     6    1
     6     6    22    1
     7    22    23   ar
     8    23    24   ar
     9    24    27    1
    10    27    28   ar
    11    28    29   ar
    12    29    30   ar
    13    30    31   ar
    14    31    33    1
    15    33    34    3
    16    31    32   ar
    17    24    25   ar
    18    25    26   ar
    19     6     7    1
    20     7     8    1
    21     8    15    1
    22    15    16   ar
    23    16    17   ar
    24    17    18   ar
    25    18    19    1
    26    18    20   ar
    27    20    21   ar
    28     8     9    1
    29    10     9    1
    30    10    11    1
    31    11    12    2
    32    11     2   am
    33    10     6    1
    34    26    22   ar
    35    21    15   ar
    36    32    27   ar
    37     4    13    1
    38     5    14    1
@<TRIPOS>MOLECULE
*****
 34 38 0 0 0
SMALL
GASTEIGER

@<TRIPOS>ATOM
      1 C          58.3475   88.3077    6.7179 C.3     1  UNL1        0.2159
      2 N          59.4135   88.0763    7.7475 N.am    1  UNL1       -0.1449
      3 C          59.9809   86.7018    7.9438 C.2     1  UNL1        0.3728
      4 N          59.4823   85.5584    7.1105 N.2     1  UNL1       -0.1329
      5 N          61.0470   86.4704    8.9735 N.pl3   1  UNL1       -0.2247
      6 C          61.5456   87.6136    9.8067 C.3     1  UNL1        0.1558
      7 C          62.5800   87.6896   10.8903 C.3     1  UNL1        0.1304
      8 N          62.6519   89.1111   11.3636 N.pl3   1  UNL1       -0.3037
      9 C          61.6619   89.9137   10.5726 C.3     1  UNL1        0.1050
     10 C          60.9781   88.9882    9.6104 C.3     1  UNL1        0.1497
     11 C          59.9121   89.2196    8.5808 C.2     1  UNL1        0.2919
     12 O          59.3447   90.5941    8.3844 O.2     1  UNL1       -0.2563
     13 H          58.7826   85.7103    6.4348 H       1  UNL1        0.3058
     14 H          61.4194   85.5682    9.1023 H       1  UNL1        0.2454
     15 C          63.5553   89.6376   12.4392 C.ar    1  UNL1        0.0481
     16 C          64.1381   91.0147   12.3214 C.ar    1  UNL1        0.0168
     17 C          65.0415   91.5412   13.3971 C.ar    1  UNL1        0.0309
     18 C          65.3619   90.6906   14.5903 C.ar    1  UNL1        0.1402
     19 F          66.2653   91.2171   15.6658 F       1  UNL1       -0.2042
     20 C          64.7791   89.3135   14.7080 C.ar    1  UNL1        0.0309
     21 C          63.8757   88.7871   13.6324 C.ar    1  UNL1        0.0168
     22 C          62.2043   86.3016   10.1144 C.ar    1  UNL1        0.0397
     23 C          61.9681   85.4610   11.3340 C.ar    1  UNL1        0.0057
     24 C          62.8327   84.2397   11.2298 C.ar    1  UNL1        0.0068
     25 C          63.6032   84.3255    9.9457 C.ar    1  UNL1        0.0352
     26 S          63.2148   85.5998    9.2563 S.2     1  UNL1       -0.0878
     27 C          62.9127   83.1278   12.2334 C.ar    1  UNL1        0.0012
     28 C          64.2422   82.7171   12.7935 C.ar    1  UNL1        0.0001
     29 C          64.3222   81.6052   13.7971 C.ar    1  UNL1        0.0007
     30 C          63.0726   80.9040   14.2407 C.ar    1  UNL1        0.0103
     31 C          61.7431   81.3146   13.6807 C.ar    1  UNL1        0.0684
     32 C          61.6631   82.4265   12.6770 C.ar    1  UNL1        0.0103
     33 C          60.4935   80.6134   14.1242 C.1     1  UNL1        0.1004
     34 N          59.2438   79.9121   14.5677 N.1     1  UNL1       -0.1908
@<TRIPOS>BOND
     1     1     2    1
     2     2     3    1
     3     3     4    2
     4     3     5    1
     5     5     6    1
     6     6    22    1
     7    22    23   ar
     8    23    24   ar
     9    24    27    1
    10    27    28   ar
    11    28    29   ar
    12    29    30   ar
    13    30    31   ar
    14    31    33    1
    15    33    34    3
    16    31    32   ar
    17    24    25   ar
    18    25    26   ar
    19     6     7    1
    20     7     8    1
    21     8    15    1
    22    15    16   ar
    23    16    17   ar
    24    17    18   ar
    25    18    19    1
    26    18    20   ar
    27    20    21   ar
    28     8     9    1
    29    10     9    1
    30    10    11    1
    31    11    12    2
    32    11     2   am
    33    10     6    1
    34    26    22   ar
    35    21    15   ar
    36    32    27   ar
    37     4    13    1
    38     5    14    1
@<TRIPOS>MOLECULE
*****
 34 38 0 0 0
SMALL
GASTEIGER

@<TRIPOS>ATOM
      1 C          59.4650   88.1618    7.6163 C.3     1  UNL1        0.2159
      2 N          60.3620   88.1588    8.8186 N.am    1  UNL1       -0.1449
      3 C          60.7520   86.8603    9.4601 C.2     1  UNL1        0.3728
      4 N          60.2449   85.5646    8.8995 N.2     1  UNL1       -0.1329
      5 N          61.6491   86.8573   10.6624 N.pl3   1  UNL1       -0.2247
      6 C          62.1561   88.1529   11.2230 C.3     1  UNL1        0.1558
      7 C          63.0476   88.4613   12.3892 C.3     1  UNL1        0.1304
      8 N          63.2085   89.9506   12.4684 N.pl3   1  UNL1       -0.3037
      9 C          62.4165   90.5625   11.3511 C.3     1  UNL1        0.1050
     10 C          61.7661   89.4514   10.5814 C.3     1  UNL1        0.1497
     11 C          60.8690   89.4544    9.3792 C.2     1  UNL1        0.2919
     12 O          60.4790   90.7530    8.7376 O.2     1  UNL1       -0.2563
     13 H          59.6562   85.5665    8.1104 H       1  UNL1        0.3058
     14 H          61.9050   86.0050   11.0835 H       1  UNL1        0.2454
     15 C          64.0192   90.6969   13.4862 C.ar    1  UNL1        0.0481
     16 C          63.6983   90.5629   14.9453 C.ar    1  UNL1        0.0168
     17 C          64.5090   91.3093   15.9630 C.ar    1  UNL1        0.0309
     18 C          65.6405   92.1896   15.5217 C.ar    1  UNL1        0.1402
     19 F          66.4511   92.9359   16.5395 F       1  UNL1       -0.2042
     20 C          65.9613   92.3236   14.0625 C.ar    1  UNL1        0.0309
     21 C          65.1506   91.5772   13.0448 C.ar    1  UNL1        0.0168
     22 C          62.6286   86.9394   11.9674 C.ar    1  UNL1        0.0397
     23 C          62.1583   85.5320   11.7485 C.ar    1  UNL1        0.0057
     24 C          62.8935   84.6431   12.7073 C.ar    1  UNL1        0.0068
     25 C          63.8183   85.5011   13.5188 C.ar    1  UNL1        0.0352
     26 S          63.6546   86.9203   13.0615 S.2     1  UNL1       -0.0878
     27 C          62.7323   83.1571   12.8326 C.ar    1  UNL1        0.0012
     28 C          62.4048   82.5477   14.1635 C.ar    1  UNL1        0.0001
     29 C          62.2435   81.0617   14.2888 C.ar    1  UNL1        0.0007
     30 C          62.4098   80.1849   13.0831 C.ar    1  UNL1        0.0103
     31 C          62.7373   80.7943   11.7522 C.ar    1  UNL1        0.0684
     32 C          62.8985   82.2803   11.6269 C.ar    1  UNL1        0.0103
     33 C          62.9035   79.9176   10.5464 C.1     1  UNL1        0.1004
     34 N          63.0697   79.0409    9.3407 N.1     1  UNL1       -0.1908
@<TRIPOS>BOND
     1     1     2    1
     2     2     3    1
     3     3     4    2
     4     3     5    1
     5     5     6    1
     6     6    22    1
     7    22    23   ar
     8    23    24   ar
     9    24    27    1
    10    27    28   ar
    11    28    29   ar
    12    29    30   ar
    13    30    31   ar
    14    31    33    1
    15    33    34    3
    16    31    32   ar
    17    24    25   ar
    18    25    26   ar
    19     6     7    1
    20     7     8    1
    21     8    15    1
    22    15    16   ar
    23    16    17   ar
    24    17    18   ar
    25    18    19    1
    26    18    20   ar
    27    20    21   ar
    28     8     9    1
    29    10     9    1
    30    10    11    1
    31    11    12    2
    32    11     2   am
    33    10     6    1
    34    26    22   ar
    35    21    15   ar
    36    32    27   ar
    37     4    13    1
    38     5    14    1
@<TRIPOS>MOLECULE
*****
 34 38 0 0 0
SMALL
GASTEIGER

@<TRIPOS>ATOM
      1 C          66.8662   95.2894   12.1016 C.3     1  UNL1        0.2159
      2 N          66.0855   94.0210   12.2802 N.am    1  UNL1       -0.1449
      3 C          65.2271   93.5052   11.1637 C.2     1  UNL1        0.3728
      4 N          65.1491   94.2577    9.8684 N.2     1  UNL1       -0.1329
      5 N          64.4464   92.2367   11.3423 N.pl3   1  UNL1       -0.2247
      6 C          64.5244   91.4843   12.6376 C.3     1  UNL1        0.1558
      7 C          63.8733   90.2152   13.1018 C.3     1  UNL1        0.1304
      8 N          64.3294   89.9468   14.5053 N.pl3   1  UNL1       -0.3037
      9 C          65.2624   91.0500   14.9085 C.3     1  UNL1        0.1050
     10 C          65.3829   92.0002   13.7542 C.3     1  UNL1        0.1497
     11 C          66.1635   93.2686   13.5755 C.2     1  UNL1        0.2919
     12 O          67.0220   93.7845   14.6921 O.2     1  UNL1       -0.2563
     13 H          65.6614   95.0901    9.7511 H       1  UNL1        0.3058
     14 H          63.8829   91.8982   10.6095 H       1  UNL1        0.2454
     15 C          63.9237   88.7801   15.3563 C.ar    1  UNL1        0.0481
     16 C          63.1665   89.0087   16.6308 C.ar    1  UNL1        0.0168
     17 C          62.7608   87.8419   17.4817 C.ar    1  UNL1        0.0309
     18 C          63.1124   86.4466   17.0583 C.ar    1  UNL1        0.1402
     19 F          62.7068   85.2798   17.9093 F       1  UNL1       -0.2042
     20 C          63.8697   86.2179   15.7838 C.ar    1  UNL1        0.0309
     21 C          64.2753   87.3848   14.9329 C.ar    1  UNL1        0.0168
     22 C          63.6282   90.8493   11.6160 C.ar    1  UNL1        0.0397
     23 C          63.4733   89.3774   11.3722 C.ar    1  UNL1        0.0057
     24 C          62.4789   89.1932   10.2644 C.ar    1  UNL1        0.0068
     25 C          62.0191   90.5512    9.8236 C.ar    1  UNL1        0.0352
     26 S          62.7295   91.5748   10.6590 S.2     1  UNL1       -0.0878
     27 C          62.0240   87.8813    9.6970 C.ar    1  UNL1        0.0012
     28 C          60.7714   87.8136    8.8747 C.ar    1  UNL1        0.0001
     29 C          60.3166   86.5017    8.3073 C.ar    1  UNL1        0.0007
     30 C          61.1144   85.2573    8.5622 C.ar    1  UNL1        0.0103
     31 C          62.3670   85.3249    9.3846 C.ar    1  UNL1        0.0684
     32 C          62.8218   86.6369    9.9520 C.ar    1  UNL1        0.0103
     33 C          63.1649   84.0806    9.6396 C.1     1  UNL1        0.1004
     34 N          63.9627   82.8362    9.8947 N.1     1  UNL1       -0.1908
@<TRIPOS>BOND
     1     1     2    1
     2     2     3    1
     3     3     4    2
     4     3     5    1
     5     5     6    1
     6     6    22    1
     7    22    23   ar
     8    23    24   ar
     9    24    27    1
    10    27    28   ar
    11    28    29   ar
    12    29    30   ar
    13    30    31   ar
    14    31    33    1
    15    33    34    3
    16    31    32   ar
    17    24    25   ar
    18    25    26   ar
    19     6     7    1
    20     7     8    1
    21     8    15    1
    22    15    16   ar
    23    16    17   ar
    24    17    18   ar
    25    18    19    1
    26    18    20   ar
    27    20    21   ar
    28     8     9    1
    29    10     9    1
    30    10    11    1
    31    11    12    2
    32    11     2   am
    33    10     6    1
    34    26    22   ar
    35    21    15   ar
    36    32    27   ar
    37     4    13    1
    38     5    14    1
@<TRIPOS>MOLECULE
*****
 34 38 0 0 0
SMALL
GASTEIGER

@<TRIPOS>ATOM
      1 C          60.1592   89.1671    8.9536 C.3     1  UNL1        0.2159
      2 N          61.1606   89.0870   10.0676 N.am    1  UNL1       -0.1449
      3 C          61.3828   87.7883   10.7843 C.2     1  UNL1        0.3728
      4 N          60.6037   86.5695   10.3871 N.2     1  UNL1       -0.1329
      5 N          62.3842   87.7081   11.8983 N.pl3   1  UNL1       -0.2247
      6 C          63.1633   88.9268   12.2955 C.3     1  UNL1        0.1558
      7 C          64.2096   89.1507   13.3467 C.3     1  UNL1        0.1304
      8 N          64.6339   90.5878   13.2797 N.pl3   1  UNL1       -0.3037
      9 C          63.8499   91.2522   12.1870 C.3     1  UNL1        0.1050
     10 C          62.9410   90.2256   11.5787 C.3     1  UNL1        0.1497
     11 C          61.9396   90.3057   10.4648 C.2     1  UNL1        0.2919
     12 O          61.7173   91.6045    9.7480 O.2     1  UNL1       -0.2563
     13 H          59.9465   86.6220    9.6559 H       1  UNL1        0.3058
     14 H          62.5301   86.8557   12.3687 H       1  UNL1        0.2454
     15 C          65.6619   91.2452   14.1521 C.ar    1  UNL1        0.0481
     16 C          65.2788   91.7522   15.5109 C.ar    1  UNL1        0.0168
     17 C          66.3069   92.4096   16.3833 C.ar    1  UNL1        0.0309
     18 C          67.7178   92.5600   15.8970 C.ar    1  UNL1        0.1402
     19 F          68.7458   93.2174   16.7694 F       1  UNL1       -0.2042
     20 C          68.1009   92.0530   14.5382 C.ar    1  UNL1        0.0309
     21 C          67.0728   91.3956   13.6658 C.ar    1  UNL1        0.0168
     22 C          63.4917   87.7039   13.0994 C.ar    1  UNL1        0.0397
     23 C          63.1968   86.2861   12.7083 C.ar    1  UNL1        0.0057
     24 C          63.6957   85.3900   13.8029 C.ar    1  UNL1        0.0068
     25 C          64.2988   86.2538   14.8705 C.ar    1  UNL1        0.0352
     26 S          64.1728   87.6839   14.4358 S.2     1  UNL1       -0.0878
     27 C          63.6069   83.8928   13.8258 C.ar    1  UNL1        0.0012
     28 C          64.8480   83.0653   13.6684 C.ar    1  UNL1        0.0001
     29 C          64.7592   81.5681   13.6913 C.ar    1  UNL1        0.0007
     30 C          63.4292   80.8983   13.8717 C.ar    1  UNL1        0.0103
     31 C          62.1881   81.7258   14.0292 C.ar    1  UNL1        0.0684
     32 C          62.2769   83.2230   14.0063 C.ar    1  UNL1        0.0103
     33 C          60.8581   81.0561   14.2096 C.1     1  UNL1        0.1004
     34 N          59.5280   80.3864   14.3900 N.1     1  UNL1       -0.1908
@<TRIPOS>BOND
     1     1     2    1
     2     2     3    1
     3     3     4    2
     4     3     5    1
     5     5     6    1
     6     6    22    1
     7    22    23   ar
     8    23    24   ar
     9    24    27    1
    10    27    28   ar
    11    28    29   ar
    12    29    30   ar
    13    30    31   ar
    14    31    33    1
    15    33    34    3
    16    31    32   ar
    17    24    25   ar
    18    25    26   ar
    19     6     7    1
    20     7     8    1
    21     8    15    1
    22    15    16   ar
    23    16    17   ar
    24    17    18   ar
    25    18    19    1
    26    18    20   ar
    27    20    21   ar
    28     8     9    1
    29    10     9    1
    30    10    11    1
    31    11    12    2
    32    11     2   am
    33    10     6    1
    34    26    22   ar
    35    21    15   ar
    36    32    27   ar
    37     4    13    1
    38     5    14    1
