@<TRIPOS>MOLECULE
*****
 64 71 0 0 0
SMALL
GASTEIGER

@<TRIPOS>ATOM
      1 N          65.5769   89.2331   14.5300 N.3     1  UNL1       -0.1862
      2 C          65.8431   87.9873   15.3218 C.3     1  UNL1        0.1775
      3 C          65.0417   86.7467   15.0602 C.2     1  UNL1        0.2452
      4 O          65.3080   85.5009   15.8521 O.2     1  UNL1       -0.2732
      5 N          63.9740   86.7518   14.0066 N.am    1  UNL1       -0.2541
      6 C          63.1726   85.5111   13.7450 C.3     1  UNL1        0.1577
      7 C          62.1049   85.5162   12.6914 C.2     1  UNL1        0.2445
      8 O          61.3035   84.2755   12.4298 O.2     1  UNL1       -0.2731
      9 N          61.8386   86.7620   11.8995 N.am    1  UNL1       -0.2705
     10 C          62.6400   88.0027   12.1612 C.3     1  UNL1        0.1359
     11 C          63.7078   87.9976   13.2148 C.3     1  UNL1        0.1908
     12 N          64.5092   89.2382   13.4764 N.am    1  UNL1       -0.1863
     13 C          64.2429   90.4840   12.6845 C.2     1  UNL1        0.3191
     14 O          63.1752   90.4892   11.6310 O.2     1  UNL1       -0.2512
     15 N          65.0443   91.7247   12.9462 N.am    1  UNL1       -0.2836
     16 H          65.7451   91.7214   13.6377 H       1  UNL1        0.1513
     17 C          66.3783   90.4738   14.7916 C.3     1  UNL1        0.1188
     18 C          66.6727   92.7404   16.0268 C.2     1  UNL1       -0.0034
     19 C          65.8364   91.5395   15.6974 C.2     1  UNL1       -0.0071
     20 C          63.4389   84.2653   14.5368 C.3     1  UNL1        0.0556
     21 C          63.2027   82.9191   13.9190 C.ar    1  UNL1       -0.0198
     22 C          62.1066   82.0370   14.4392 C.ar    1  UNL1       -0.0011
     23 C          61.8704   80.6908   13.8213 C.ar    1  UNL1        0.0363
     24 C          62.7302   80.2265   12.6833 C.ar    1  UNL1        0.1337
     25 O          62.4939   78.8802   12.0654 O.3     1  UNL1       -0.5055
     26 C          63.8263   81.1086   12.1631 C.ar    1  UNL1        0.0363
     27 C          64.0626   82.4548   12.7809 C.ar    1  UNL1       -0.0011
     28 H          61.8092   78.3293   12.3904 H       1  UNL1        0.2922
     29 C          60.7709   86.7671   10.8460 C.3     1  UNL1        0.1217
     30 C          60.3685   88.0559   10.1922 C.ar    1  UNL1        0.0135
     31 C          60.0016   89.2416   11.0345 C.ar    1  UNL1       -0.0012
     32 C          59.5992   90.5302   10.3808 C.ar    1  UNL1       -0.0002
     33 C          59.5636   90.6332    8.8848 C.ar    1  UNL1        0.0015
     34 C          59.9305   89.4475    8.0425 C.ar    1  UNL1        0.0170
     35 C          59.9881   89.2512    6.5565 C.ar    1  UNL1        0.0201
     36 C          60.4261   87.8412    6.2919 C.ar    1  UNL1        0.0760
     37 N          60.6392   87.1661    7.6142 N.ar    1  UNL1       -0.3242
     38 C          61.0811   85.7473    7.8188 C.3     1  UNL1        0.1305
     39 C          60.3329   88.1588    8.6962 C.ar    1  UNL1        0.0575
     40 C          59.6644   90.2837    5.5176 C.ar    1  UNL1        0.0208
     41 C          60.7593   90.8700    4.6764 C.ar    1  UNL1        0.0045
     42 C          60.4356   91.9025    3.6375 C.ar    1  UNL1        0.0345
     43 C          59.0171   92.3485    3.4398 C.ar    1  UNL1        0.1353
     44 N          57.9223   91.7622    4.2810 N.ar    1  UNL1       -0.2290
     45 C          58.2460   90.7298    5.3199 C.ar    1  UNL1        0.1003
     46 N          58.6935   93.3810    2.4009 N.am    1  UNL1       -0.2534
     47 C          59.3725   93.3383    1.0640 C.2     1  UNL1        0.3092
     48 O          60.3751   92.2632    0.7661 O.2     1  UNL1       -0.2521
     49 N          59.0488   94.3708    0.0252 N.am    1  UNL1       -0.2680
     50 H          58.0355   94.0866    2.5965 H       1  UNL1        0.1578
     51 H          58.3908   95.0765    0.2208 H       1  UNL1        0.1564
     52 C          59.7278   94.3281   -1.3116 C.ar    1  UNL1        0.0516
     53 C          61.1438   94.8037   -1.4492 C.ar    1  UNL1        0.0147
     54 C          61.8228   94.7609   -2.7861 C.ar    1  UNL1        0.0013
     55 C          61.0858   94.2426   -3.9854 C.ar    1  UNL1        0.0001
     56 C          59.6698   93.7670   -3.8478 C.ar    1  UNL1        0.0013
     57 C          58.9909   93.8098   -2.5109 C.ar    1  UNL1        0.0147
     58 C          64.7780   92.9705   12.1543 C.3     1  UNL1        0.1177
     59 C          65.8007   93.4717   11.1782 C.ar    1  UNL1       -0.0025
     60 C          65.8616   94.9315   10.8389 C.ar    1  UNL1       -0.0026
     61 C          66.8843   95.4327    9.8627 C.ar    1  UNL1       -0.0003
     62 C          67.8462   94.4740    9.2259 C.ar    1  UNL1       -0.0000
     63 C          67.7854   93.0141    9.5651 C.ar    1  UNL1       -0.0003
     64 C          66.7627   92.5129   10.5413 C.ar    1  UNL1       -0.0026
@<TRIPOS>BOND
     1    18    19    2
     2    19    17    1
     3    17     1    1
     4     1     2    1
     5     2     3    1
     6     3     4    2
     7     3     5   am
     8     5     6    1
     9     6    20    1
    10    20    21    1
    11    21    22   ar
    12    22    23   ar
    13    23    24   ar
    14    24    25    1
    15    24    26   ar
    16    26    27   ar
    17     6     7    1
    18     7     8    2
    19     7     9   am
    20     9    29    1
    21    29    30    1
    22    30    31   ar
    23    31    32   ar
    24    32    33   ar
    25    33    34   ar
    26    34    35   ar
    27    35    40    1
    28    40    41   ar
    29    41    42   ar
    30    42    43   ar
    31    43    46    1
    32    46    47   am
    33    47    48    2
    34    47    49   am
    35    49    52    1
    36    52    53   ar
    37    53    54   ar
    38    54    55   ar
    39    55    56   ar
    40    56    57   ar
    41    43    44   ar
    42    44    45   ar
    43    35    36   ar
    44    36    37   ar
    45    37    38    1
    46    37    39   ar
    47     9    10    1
    48    11    10    1
    49    11    12    1
    50    12    13   am
    51    13    14    2
    52    13    15   am
    53    15    58    1
    54    58    59    1
    55    59    60   ar
    56    60    61   ar
    57    61    62   ar
    58    62    63   ar
    59    63    64   ar
    60    12     1    1
    61    64    59   ar
    62    11     5    1
    63    27    21   ar
    64    39    30   ar
    65    39    34   ar
    66    45    40   ar
    67    57    52   ar
    68    25    28    1
    69    46    50    1
    70    49    51    1
    71    15    16    1
@<TRIPOS>MOLECULE
*****
 64 71 0 0 0
SMALL
GASTEIGER

@<TRIPOS>ATOM
      1 N          65.5084   89.8462   13.8028 N.3     1  UNL1       -0.1862
      2 C          65.9338   88.7231   14.7015 C.3     1  UNL1        0.1775
      3 C          65.1711   87.4315   14.7003 C.2     1  UNL1        0.2452
      4 O          65.5966   86.3084   15.5990 O.2     1  UNL1       -0.2732
      5 N          63.9830   87.2630   13.8004 N.am    1  UNL1       -0.2541
      6 C          63.2202   85.9714   13.7992 C.3     1  UNL1        0.1577
      7 C          62.0321   85.8028   12.8993 C.2     1  UNL1        0.2445
      8 O          61.2694   84.5112   12.8981 O.2     1  UNL1       -0.2731
      9 N          61.6066   86.9259   12.0006 N.am    1  UNL1       -0.2705
     10 C          62.3693   88.2175   12.0018 C.3     1  UNL1        0.1359
     11 C          63.5575   88.3860   12.9017 C.3     1  UNL1        0.1908
     12 N          64.3202   89.6776   12.9029 N.am    1  UNL1       -0.1863
     13 C          63.8947   90.8007   12.0042 C.2     1  UNL1        0.3191
     14 O          62.7066   90.6322   11.1043 O.2     1  UNL1       -0.2512
     15 N          64.6574   92.0924   12.0053 N.am    1  UNL1       -0.2836
     16 H          65.4373   92.2030   12.5960 H       1  UNL1        0.1513
     17 C          66.2711   91.1378   13.8040 C.3     1  UNL1        0.1188
     18 C          67.2221   93.1881   15.0854 C.2     1  UNL1       -0.0034
     19 C          66.4609   91.8955   15.0845 C.2     1  UNL1       -0.0071
     20 C          63.6457   84.8483   14.6979 C.3     1  UNL1        0.0556
     21 C          63.3570   83.4280   14.3115 C.ar    1  UNL1       -0.0198
     22 C          62.1589   82.7253   14.8778 C.ar    1  UNL1       -0.0011
     23 C          61.8701   81.3050   14.4914 C.ar    1  UNL1        0.0363
     24 C          62.7795   80.5873   13.5386 C.ar    1  UNL1        0.1337
     25 O          62.4908   79.1670   13.1522 O.3     1  UNL1       -0.5055
     26 C          63.9777   81.2899   12.9722 C.ar    1  UNL1        0.0363
     27 C          64.2664   82.7103   13.3586 C.ar    1  UNL1       -0.0011
     28 H          61.7424   78.7281   13.5060 H       1  UNL1        0.2922
     29 C          60.4184   86.7574   11.1007 C.3     1  UNL1        0.1217
     30 C          60.5485   87.0200    9.6296 C.ar    1  UNL1        0.0135
     31 C          61.0712   85.9481    8.7197 C.ar    1  UNL1       -0.0012
     32 C          61.2013   86.2107    7.2486 C.ar    1  UNL1       -0.0002
     33 C          60.8086   87.5452    6.6874 C.ar    1  UNL1        0.0015
     34 C          60.2859   88.6171    7.5973 C.ar    1  UNL1        0.0170
     35 C          59.8235   90.0195    7.3342 C.ar    1  UNL1        0.0201
     36 C          59.4076   90.6237    8.6426 C.ar    1  UNL1        0.0760
     37 N          59.6130   89.5946    9.7144 N.ar    1  UNL1       -0.3242
     38 C          59.3260   89.7742   11.1757 C.3     1  UNL1        0.1305
     39 C          60.1559   88.3545    9.0684 C.ar    1  UNL1        0.0575
     40 C          59.7839   90.6987    5.9972 C.ar    1  UNL1        0.0208
     41 C          61.0402   90.8386    5.1896 C.ar    1  UNL1        0.0045
     42 C          61.0005   91.5177    3.8527 C.ar    1  UNL1        0.0345
     43 C          59.7047   92.0568    3.3235 C.ar    1  UNL1        0.1353
     44 N          58.4484   91.9168    4.1311 N.ar    1  UNL1       -0.2290
     45 C          58.4881   91.2378    5.4679 C.ar    1  UNL1        0.1003
     46 N          59.6651   92.7359    1.9866 N.am    1  UNL1       -0.2534
     47 C          60.9238   93.2937    1.3911 C.2     1  UNL1        0.3092
     48 O          62.2220   93.1724    2.1325 O.2     1  UNL1       -0.2521
     49 N          60.8841   93.9727    0.0542 N.am    1  UNL1       -0.2680
     50 H          58.8130   92.8154    1.5000 H       1  UNL1        0.1578
     51 H          60.0320   94.0523   -0.4324 H       1  UNL1        0.1564
     52 C          62.1428   94.5306   -0.5413 C.ar    1  UNL1        0.0516
     53 C          62.6322   95.8863   -0.1260 C.ar    1  UNL1        0.0147
     54 C          63.8909   96.4441   -0.7214 C.ar    1  UNL1        0.0013
     55 C          64.6602   95.6461   -1.7322 C.ar    1  UNL1        0.0001
     56 C          64.1708   94.2904   -2.1475 C.ar    1  UNL1        0.0013
     57 C          62.9120   93.7326   -1.5520 C.ar    1  UNL1        0.0147
     58 C          64.2320   93.2154   11.1067 C.3     1  UNL1        0.1177
     59 C          65.2648   94.0771   10.4427 C.ar    1  UNL1       -0.0025
     60 C          65.0590   95.5602   10.3528 C.ar    1  UNL1       -0.0026
     61 C          66.0918   96.4218    9.6889 C.ar    1  UNL1       -0.0003
     62 C          67.3304   95.8005    9.1148 C.ar    1  UNL1       -0.0000
     63 C          67.5363   94.3173    9.2047 C.ar    1  UNL1       -0.0003
     64 C          66.5035   93.4556    9.8687 C.ar    1  UNL1       -0.0026
@<TRIPOS>BOND
     1    18    19    2
     2    19    17    1
     3    17     1    1
     4     1     2    1
     5     2     3    1
     6     3     4    2
     7     3     5   am
     8     5     6    1
     9     6    20    1
    10    20    21    1
    11    21    22   ar
    12    22    23   ar
    13    23    24   ar
    14    24    25    1
    15    24    26   ar
    16    26    27   ar
    17     6     7    1
    18     7     8    2
    19     7     9   am
    20     9    29    1
    21    29    30    1
    22    30    31   ar
    23    31    32   ar
    24    32    33   ar
    25    33    34   ar
    26    34    35   ar
    27    35    40    1
    28    40    41   ar
    29    41    42   ar
    30    42    43   ar
    31    43    46    1
    32    46    47   am
    33    47    48    2
    34    47    49   am
    35    49    52    1
    36    52    53   ar
    37    53    54   ar
    38    54    55   ar
    39    55    56   ar
    40    56    57   ar
    41    43    44   ar
    42    44    45   ar
    43    35    36   ar
    44    36    37   ar
    45    37    38    1
    46    37    39   ar
    47     9    10    1
    48    11    10    1
    49    11    12    1
    50    12    13   am
    51    13    14    2
    52    13    15   am
    53    15    58    1
    54    58    59    1
    55    59    60   ar
    56    60    61   ar
    57    61    62   ar
    58    62    63   ar
    59    63    64   ar
    60    12     1    1
    61    64    59   ar
    62    11     5    1
    63    27    21   ar
    64    39    30   ar
    65    39    34   ar
    66    45    40   ar
    67    57    52   ar
    68    25    28    1
    69    46    50    1
    70    49    51    1
    71    15    16    1
@<TRIPOS>MOLECULE
*****
 64 71 0 0 0
SMALL
GASTEIGER

@<TRIPOS>ATOM
      1 N          64.5557   83.1345   13.2725 N.3     1  UNL1       -0.1862
      2 C          65.1789   84.0046   14.3234 C.3     1  UNL1        0.1775
      3 C          64.7686   85.4421   14.4470 C.2     1  UNL1        0.2452
      4 O          65.3919   86.3122   15.4980 O.2     1  UNL1       -0.2732
      5 N          63.7352   86.0095   13.5196 N.am    1  UNL1       -0.2541
      6 C          63.3249   87.4470   13.6431 C.3     1  UNL1        0.1577
      7 C          62.2915   88.0144   12.7158 C.2     1  UNL1        0.2445
      8 O          61.8813   89.4519   12.8393 O.2     1  UNL1       -0.2731
      9 N          61.6683   87.1442   11.6648 N.am    1  UNL1       -0.2705
     10 C          62.0785   85.7067   11.5412 C.3     1  UNL1        0.1359
     11 C          63.1120   85.1394   12.4687 C.3     1  UNL1        0.1908
     12 N          63.5223   83.7019   12.3451 N.am    1  UNL1       -0.1863
     13 C          62.8990   82.8317   11.2941 C.2     1  UNL1        0.3191
     14 O          61.8656   83.3991   10.3668 O.2     1  UNL1       -0.2512
     15 N          63.3093   81.3942   11.1706 N.am    1  UNL1       -0.2836
     16 H          63.9876   81.0218   11.7793 H       1  UNL1        0.1513
     17 C          64.9659   81.6970   13.1489 C.3     1  UNL1        0.1188
     18 C          62.7829   80.8028   14.2374 C.2     1  UNL1       -0.0034
     19 C          64.2421   80.6406   13.9301 C.2     1  UNL1       -0.0071
     20 C          63.9481   88.3171   14.6941 C.3     1  UNL1        0.0556
     21 C          64.5358   89.6447   14.3169 C.ar    1  UNL1       -0.0198
     22 C          64.2101   90.2587   12.9877 C.ar    1  UNL1       -0.0011
     23 C          64.7978   91.5862   12.6105 C.ar    1  UNL1        0.0363
     24 C          65.7113   92.2997   13.5626 C.ar    1  UNL1        0.1337
     25 O          66.2990   93.6272   13.1854 O.3     1  UNL1       -0.5055
     26 C          66.0371   91.6857   14.8918 C.ar    1  UNL1        0.0363
     27 C          65.4494   90.3582   15.2690 C.ar    1  UNL1       -0.0011
     28 H          66.0955   94.0108   12.3551 H       1  UNL1        0.2922
     29 C          60.6349   87.7116   10.7374 C.3     1  UNL1        0.1217
     30 C          60.9841   88.8600    9.8377 C.ar    1  UNL1        0.0135
     31 C          62.0054   89.8692   10.2719 C.ar    1  UNL1       -0.0012
     32 C          62.3546   91.0175    9.3723 C.ar    1  UNL1       -0.0002
     33 C          61.6825   91.1567    8.0385 C.ar    1  UNL1        0.0015
     34 C          60.6612   90.1475    7.6044 C.ar    1  UNL1        0.0170
     35 C          59.8392   90.0246    6.3557 C.ar    1  UNL1        0.0201
     36 C          58.9821   88.8004    6.4836 C.ar    1  UNL1        0.0760
     37 N          59.2742   88.1666    7.8113 N.ar    1  UNL1       -0.3242
     38 C          58.6400   86.9193    8.3514 C.3     1  UNL1        0.1305
     39 C          60.3120   88.9992    8.5040 C.ar    1  UNL1        0.0575
     40 C          59.8693   90.9616    5.1846 C.ar    1  UNL1        0.0208
     41 C          61.1682   91.2610    4.4967 C.ar    1  UNL1        0.0045
     42 C          61.1981   92.1979    3.3257 C.ar    1  UNL1        0.0345
     43 C          59.9292   92.8355    2.8427 C.ar    1  UNL1        0.1353
     44 N          58.6303   92.5362    3.5306 N.ar    1  UNL1       -0.2290
     45 C          58.6004   91.5993    4.7016 C.ar    1  UNL1        0.1003
     46 N          59.9592   93.7724    1.6717 N.am    1  UNL1       -0.2534
     47 C          61.0268   93.6336    0.6271 C.2     1  UNL1        0.3092
     48 O          62.0644   92.5578    0.7536 O.2     1  UNL1       -0.2521
     49 N          61.0568   94.5706   -0.5438 N.am    1  UNL1       -0.2680
     50 H          59.2782   94.4785    1.5887 H       1  UNL1        0.1578
     51 H          60.3758   95.2767   -0.6268 H       1  UNL1        0.1564
     52 C          62.1244   94.4317   -1.5883 C.ar    1  UNL1        0.0516
     53 C          63.3530   95.2897   -1.5236 C.ar    1  UNL1        0.0147
     54 C          64.4206   95.1508   -2.5681 C.ar    1  UNL1        0.0013
     55 C          64.2596   94.1538   -3.6773 C.ar    1  UNL1        0.0001
     56 C          63.0310   93.2958   -3.7419 C.ar    1  UNL1        0.0013
     57 C          61.9634   93.4348   -2.6974 C.ar    1  UNL1        0.0147
     58 C          62.6861   80.5241   10.1197 C.3     1  UNL1        0.1177
     59 C          63.0696   79.0774   10.0196 C.ar    1  UNL1       -0.0025
     60 C          62.4851   78.0788   10.9740 C.ar    1  UNL1       -0.0026
     61 C          62.8686   76.6321   10.8739 C.ar    1  UNL1       -0.0003
     62 C          63.8366   76.1840    9.8194 C.ar    1  UNL1       -0.0000
     63 C          64.4213   77.1827    8.8649 C.ar    1  UNL1       -0.0003
     64 C          64.0377   78.6294    8.9650 C.ar    1  UNL1       -0.0026
@<TRIPOS>BOND
     1    18    19    2
     2    19    17    1
     3    17     1    1
     4     1     2    1
     5     2     3    1
     6     3     4    2
     7     3     5   am
     8     5     6    1
     9     6    20    1
    10    20    21    1
    11    21    22   ar
    12    22    23   ar
    13    23    24   ar
    14    24    25    1
    15    24    26   ar
    16    26    27   ar
    17     6     7    1
    18     7     8    2
    19     7     9   am
    20     9    29    1
    21    29    30    1
    22    30    31   ar
    23    31    32   ar
    24    32    33   ar
    25    33    34   ar
    26    34    35   ar
    27    35    40    1
    28    40    41   ar
    29    41    42   ar
    30    42    43   ar
    31    43    46    1
    32    46    47   am
    33    47    48    2
    34    47    49   am
    35    49    52    1
    36    52    53   ar
    37    53    54   ar
    38    54    55   ar
    39    55    56   ar
    40    56    57   ar
    41    43    44   ar
    42    44    45   ar
    43    35    36   ar
    44    36    37   ar
    45    37    38    1
    46    37    39   ar
    47     9    10    1
    48    11    10    1
    49    11    12    1
    50    12    13   am
    51    13    14    2
    52    13    15   am
    53    15    58    1
    54    58    59    1
    55    59    60   ar
    56    60    61   ar
    57    61    62   ar
    58    62    63   ar
    59    63    64   ar
    60    12     1    1
    61    64    59   ar
    62    11     5    1
    63    27    21   ar
    64    39    30   ar
    65    39    34   ar
    66    45    40   ar
    67    57    52   ar
    68    25    28    1
    69    46    50    1
    70    49    51    1
    71    15    16    1
@<TRIPOS>MOLECULE
*****
 64 71 0 0 0
SMALL
GASTEIGER

@<TRIPOS>ATOM
      1 N          64.4838   83.1239   13.3332 N.3     1  UNL1       -0.1862
      2 C          65.0713   83.9820   14.4140 C.3     1  UNL1        0.1775
      3 C          64.6558   85.4177   14.5409 C.2     1  UNL1        0.2452
      4 O          65.2434   86.2759   15.6218 O.2     1  UNL1       -0.2732
      5 N          63.6527   85.9953   13.5869 N.am    1  UNL1       -0.2541
      6 C          63.2372   87.4310   13.7137 C.3     1  UNL1        0.1577
      7 C          62.2341   88.0085   12.7597 C.2     1  UNL1        0.2445
      8 O          61.8185   89.4442   12.8866 O.2     1  UNL1       -0.2731
      9 N          61.6465   87.1504   11.6788 N.am    1  UNL1       -0.2705
     10 C          62.0620   85.7147   11.5519 C.3     1  UNL1        0.1359
     11 C          63.0652   85.1372   12.5060 C.3     1  UNL1        0.1908
     12 N          63.4807   83.7015   12.3792 N.am    1  UNL1       -0.1863
     13 C          62.8931   82.8433   11.2982 C.2     1  UNL1        0.3191
     14 O          61.8900   83.4208   10.3442 O.2     1  UNL1       -0.2512
     15 N          63.3087   81.4076   11.1714 N.am    1  UNL1       -0.2836
     16 H          63.9670   81.0285   11.7975 H       1  UNL1        0.1513
     17 C          64.8993   81.6882   13.2063 C.3     1  UNL1        0.1188
     18 C          62.7243   80.5412   14.0449 C.2     1  UNL1       -0.0034
     19 C          64.2212   80.6354   14.0320 C.2     1  UNL1       -0.0071
     20 C          63.8247   88.2891   14.7946 C.3     1  UNL1        0.0556
     21 C          64.3846   89.6396   14.4589 C.ar    1  UNL1       -0.0198
     22 C          64.8311   90.5602   15.5557 C.ar    1  UNL1       -0.0011
     23 C          65.3910   91.9107   15.2200 C.ar    1  UNL1        0.0363
     24 C          65.5045   92.3405   13.7874 C.ar    1  UNL1        0.1337
     25 O          66.0644   93.6910   13.4517 O.3     1  UNL1       -0.5055
     26 C          65.0580   91.4199   12.6905 C.ar    1  UNL1        0.0363
     27 C          64.4981   90.0694   13.0262 C.ar    1  UNL1       -0.0011
     28 H          66.3433   94.2661   14.1368 H       1  UNL1        0.2922
     29 C          60.6434   87.7279   10.7247 C.3     1  UNL1        0.1217
     30 C          61.0275   88.8726    9.8346 C.ar    1  UNL1        0.0135
     31 C          62.0605   89.8613   10.2879 C.ar    1  UNL1       -0.0012
     32 C          62.4446   91.0059    9.3978 C.ar    1  UNL1       -0.0002
     33 C          61.7957   91.1619    8.0545 C.ar    1  UNL1        0.0015
     34 C          60.7627   90.1733    7.6013 C.ar    1  UNL1        0.0170
     35 C          59.9578   90.0698    6.3397 C.ar    1  UNL1        0.0201
     36 C          59.0763   88.8612    6.4501 C.ar    1  UNL1        0.0760
     37 N          59.3363   88.2178    7.7798 N.ar    1  UNL1       -0.3242
     38 C          58.6709   86.9806    8.3058 C.3     1  UNL1        0.1305
     39 C          60.3786   89.0286    8.4913 C.ar    1  UNL1        0.0575
     40 C          60.0230   91.0099    5.1726 C.ar    1  UNL1        0.0208
     41 C          61.3144   91.1992    4.4333 C.ar    1  UNL1        0.0045
     42 C          61.3795   92.1393    3.2663 C.ar    1  UNL1        0.0345
     43 C          60.1534   92.8901    2.8386 C.ar    1  UNL1        0.1353
     44 N          58.8621   92.7008    3.5779 N.ar    1  UNL1       -0.2290
     45 C          58.7969   91.7607    4.7449 C.ar    1  UNL1        0.1003
     46 N          60.2187   93.8302    1.6716 N.am    1  UNL1       -0.2534
     47 C          59.3485   93.5982    0.4720 C.2     1  UNL1        0.3092
     48 O          58.4131   92.4261    0.4394 O.2     1  UNL1       -0.2521
     49 N          59.4139   94.5383   -0.6950 N.am    1  UNL1       -0.2680
     50 H          60.8326   94.5995    1.6930 H       1  UNL1        0.1578
     51 H          60.0278   95.3076   -0.6736 H       1  UNL1        0.1564
     52 C          58.5437   94.3063   -1.8946 C.ar    1  UNL1        0.0516
     53 C          57.1423   94.8405   -1.9192 C.ar    1  UNL1        0.0147
     54 C          56.2721   94.6085   -3.1188 C.ar    1  UNL1        0.0013
     55 C          56.8034   93.8421   -4.2938 C.ar    1  UNL1        0.0001
     56 C          58.2048   93.3078   -4.2692 C.ar    1  UNL1        0.0013
     57 C          59.0749   93.5400   -3.0695 C.ar    1  UNL1        0.0147
     58 C          62.7211   80.5494   10.0905 C.3     1  UNL1        0.1177
     59 C          63.0909   79.0985   10.0006 C.ar    1  UNL1       -0.0025
     60 C          64.0433   78.6315    8.9401 C.ar    1  UNL1       -0.0026
     61 C          64.4130   77.1806    8.8502 C.ar    1  UNL1       -0.0003
     62 C          63.8304   76.1966    9.8209 C.ar    1  UNL1       -0.0000
     63 C          62.8779   76.6636   10.8815 C.ar    1  UNL1       -0.0003
     64 C          62.5082   78.1145   10.9714 C.ar    1  UNL1       -0.0026
@<TRIPOS>BOND
     1    18    19    2
     2    19    17    1
     3    17     1    1
     4     1     2    1
     5     2     3    1
     6     3     4    2
     7     3     5   am
     8     5     6    1
     9     6    20    1
    10    20    21    1
    11    21    22   ar
    12    22    23   ar
    13    23    24   ar
    14    24    25    1
    15    24    26   ar
    16    26    27   ar
    17     6     7    1
    18     7     8    2
    19     7     9   am
    20     9    29    1
    21    29    30    1
    22    30    31   ar
    23    31    32   ar
    24    32    33   ar
    25    33    34   ar
    26    34    35   ar
    27    35    40    1
    28    40    41   ar
    29    41    42   ar
    30    42    43   ar
    31    43    46    1
    32    46    47   am
    33    47    48    2
    34    47    49   am
    35    49    52    1
    36    52    53   ar
    37    53    54   ar
    38    54    55   ar
    39    55    56   ar
    40    56    57   ar
    41    43    44   ar
    42    44    45   ar
    43    35    36   ar
    44    36    37   ar
    45    37    38    1
    46    37    39   ar
    47     9    10    1
    48    11    10    1
    49    11    12    1
    50    12    13   am
    51    13    14    2
    52    13    15   am
    53    15    58    1
    54    58    59    1
    55    59    60   ar
    56    60    61   ar
    57    61    62   ar
    58    62    63   ar
    59    63    64   ar
    60    12     1    1
    61    64    59   ar
    62    11     5    1
    63    27    21   ar
    64    39    30   ar
    65    39    34   ar
    66    45    40   ar
    67    57    52   ar
    68    25    28    1
    69    46    50    1
    70    49    51    1
    71    15    16    1
@<TRIPOS>MOLECULE
*****
 64 71 0 0 0
SMALL
GASTEIGER

@<TRIPOS>ATOM
      1 N          63.8647   90.0699   12.0216 N.3     1  UNL1       -0.1862
      2 C          63.5677   88.6615   12.4435 C.3     1  UNL1        0.1775
      3 C          62.5744   87.8418   11.6743 C.2     1  UNL1        0.2452
      4 O          62.2774   86.4333   12.0963 O.2     1  UNL1       -0.2732
      5 N          61.8783   88.4306   10.4833 N.am    1  UNL1       -0.2541
      6 C          60.8850   87.6109    9.7141 C.3     1  UNL1        0.1577
      7 C          60.1889   88.1996    8.5230 C.2     1  UNL1        0.2445
      8 O          59.1956   87.3799    7.7539 O.2     1  UNL1       -0.2731
      9 N          60.4859   89.6081    8.1011 N.am    1  UNL1       -0.2705
     10 C          61.4792   90.4278    8.8702 C.3     1  UNL1        0.1359
     11 C          62.1753   89.8390   10.0614 C.3     1  UNL1        0.1908
     12 N          63.1686   90.6587   10.8305 N.am    1  UNL1       -0.1863
     13 C          63.4656   92.0672   10.4086 C.2     1  UNL1        0.3191
     14 O          62.7695   92.6559    9.2175 O.2     1  UNL1       -0.2512
     15 N          64.4589   92.8868   11.1777 N.am    1  UNL1       -0.2836
     16 H          64.9158   92.5004   11.9595 H       1  UNL1        0.1513
     17 C          64.8580   90.8896   12.7908 C.3     1  UNL1        0.1188
     18 C          64.1239   90.9217   15.2827 C.2     1  UNL1       -0.0034
     19 C          65.1353   90.5747   14.2308 C.2     1  UNL1       -0.0071
     20 C          60.5880   86.2025   10.1360 C.3     1  UNL1        0.0556
     21 C          61.6793   85.1734   10.1356 C.ar    1  UNL1       -0.0198
     22 C          62.6690   85.1302    9.0093 C.ar    1  UNL1       -0.0011
     23 C          63.7603   84.1011    9.0088 C.ar    1  UNL1        0.0363
     24 C          63.8620   83.1152   10.1347 C.ar    1  UNL1        0.1337
     25 O          64.9533   82.0861   10.1342 O.3     1  UNL1       -0.5055
     26 C          62.8722   83.1583   11.2611 C.ar    1  UNL1        0.0363
     27 C          61.7809   84.1874   11.2615 C.ar    1  UNL1       -0.0011
     28 H          65.5715   82.0592    9.4307 H       1  UNL1        0.2922
     29 C          59.7898   90.1969    6.9100 C.3     1  UNL1        0.1217
     30 C          60.5889   90.6680    5.7312 C.ar    1  UNL1        0.0135
     31 C          62.0650   90.4074    5.6734 C.ar    1  UNL1       -0.0012
     32 C          62.8641   90.8784    4.4947 C.ar    1  UNL1       -0.0002
     33 C          62.1872   91.6101    3.3738 C.ar    1  UNL1        0.0015
     34 C          60.7112   91.8706    3.4316 C.ar    1  UNL1        0.0170
     35 C          59.7759   92.5610    2.4836 C.ar    1  UNL1        0.0201
     36 C          58.3988   92.5166    3.0764 C.ar    1  UNL1        0.0760
     37 N          58.4829   91.7988    4.3908 N.ar    1  UNL1       -0.3242
     38 C          57.3388   91.5278    5.3221 C.3     1  UNL1        0.1305
     39 C          59.9120   91.3996    4.6103 C.ar    1  UNL1        0.0575
     40 C          60.1519   93.1860    1.1728 C.ar    1  UNL1        0.0208
     41 C          59.7285   92.5420   -0.1141 C.ar    1  UNL1        0.0045
     42 C          60.1045   93.1670   -1.4247 C.ar    1  UNL1        0.0345
     43 C          60.9038   94.4361   -1.4486 C.ar    1  UNL1        0.1353
     44 N          61.3272   95.0801   -0.1618 N.ar    1  UNL1       -0.2290
     45 C          60.9512   94.4551    1.1489 C.ar    1  UNL1        0.1003
     46 N          61.2797   95.0611   -2.7593 N.am    1  UNL1       -0.2534
     47 C          62.3711   94.4573   -3.5927 C.2     1  UNL1        0.3092
     48 O          63.0866   93.2284   -3.1152 O.2     1  UNL1       -0.2521
     49 N          62.7470   95.0823   -4.9034 N.am    1  UNL1       -0.2680
     50 H          60.8102   95.8676   -3.0727 H       1  UNL1        0.1578
     51 H          62.2774   95.8889   -5.2167 H       1  UNL1        0.1564
     52 C          63.8384   94.4785   -5.7366 C.ar    1  UNL1        0.0516
     53 C          63.5891   93.2065   -6.4915 C.ar    1  UNL1        0.0147
     54 C          64.6804   92.6026   -7.3247 C.ar    1  UNL1        0.0013
     55 C          66.0212   93.2708   -7.4030 C.ar    1  UNL1        0.0001
     56 C          66.2705   94.5428   -6.6481 C.ar    1  UNL1        0.0013
     57 C          65.1790   95.1466   -5.8149 C.ar    1  UNL1        0.0147
     58 C          64.7559   94.2953   10.7558 C.3     1  UNL1        0.1177
     59 C          65.9481   94.5839    9.8924 C.ar    1  UNL1       -0.0025
     60 C          66.1123   95.9383    9.2690 C.ar    1  UNL1       -0.0026
     61 C          67.3044   96.2270    8.4056 C.ar    1  UNL1       -0.0003
     62 C          68.3324   95.1613    8.1656 C.ar    1  UNL1       -0.0000
     63 C          68.1682   93.8069    8.7891 C.ar    1  UNL1       -0.0003
     64 C          66.9760   93.5182    9.6525 C.ar    1  UNL1       -0.0026
@<TRIPOS>BOND
     1    18    19    2
     2    19    17    1
     3    17     1    1
     4     1     2    1
     5     2     3    1
     6     3     4    2
     7     3     5   am
     8     5     6    1
     9     6    20    1
    10    20    21    1
    11    21    22   ar
    12    22    23   ar
    13    23    24   ar
    14    24    25    1
    15    24    26   ar
    16    26    27   ar
    17     6     7    1
    18     7     8    2
    19     7     9   am
    20     9    29    1
    21    29    30    1
    22    30    31   ar
    23    31    32   ar
    24    32    33   ar
    25    33    34   ar
    26    34    35   ar
    27    35    40    1
    28    40    41   ar
    29    41    42   ar
    30    42    43   ar
    31    43    46    1
    32    46    47   am
    33    47    48    2
    34    47    49   am
    35    49    52    1
    36    52    53   ar
    37    53    54   ar
    38    54    55   ar
    39    55    56   ar
    40    56    57   ar
    41    43    44   ar
    42    44    45   ar
    43    35    36   ar
    44    36    37   ar
    45    37    38    1
    46    37    39   ar
    47     9    10    1
    48    11    10    1
    49    11    12    1
    50    12    13   am
    51    13    14    2
    52    13    15   am
    53    15    58    1
    54    58    59    1
    55    59    60   ar
    56    60    61   ar
    57    61    62   ar
    58    62    63   ar
    59    63    64   ar
    60    12     1    1
    61    64    59   ar
    62    11     5    1
    63    27    21   ar
    64    39    30   ar
    65    39    34   ar
    66    45    40   ar
    67    57    52   ar
    68    25    28    1
    69    46    50    1
    70    49    51    1
    71    15    16    1
