@<TRIPOS>MOLECULE
*****
 42 47 0 0 0
SMALL
GASTEIGER

@<TRIPOS>ATOM
      1 N          67.2682   93.2512   13.0167 N.3     1  UNL1       -0.3185
      2 C          65.9882   92.5427   12.6858 C.3     1  UNL1        0.0790
      3 C          65.1922   92.0547   13.8599 C.ar    1  UNL1        0.0091
      4 C          65.8671   92.3896   15.1569 C.ar    1  UNL1       -0.0001
      5 C          65.2347   91.9892   16.4567 C.ar    1  UNL1        0.0204
      6 C          63.9273   91.2539   16.4595 C.ar    1  UNL1        0.0986
      7 N          63.2524   90.9189   15.1625 N.ar    1  UNL1       -0.2449
      8 C          63.8849   91.3193   13.8627 C.ar    1  UNL1        0.0960
      9 C          63.0506   90.8903   12.6922 C.3     1  UNL1        0.2097
     10 C          63.3176   91.0907   11.2298 C.3     1  UNL1        0.0504
     11 C          64.4849   91.7697   10.5768 C.3     1  UNL1        0.0102
     12 C          65.6734   92.4159   11.2247 C.3     1  UNL1        0.0431
     13 H          67.3871   93.2833   14.0293 H       1  UNL1        0.1191
     14 H          67.2359   94.2017   12.6479 H       1  UNL1        0.1191
     15 C          66.6803   93.0144   10.2877 C.ar    1  UNL1        0.0088
     16 C          67.7912   92.1680    9.7402 C.ar    1  UNL1       -0.0019
     17 C          68.7980   92.7666    8.8032 C.ar    1  UNL1        0.0021
     18 C          68.6940   94.2114    8.4136 C.ar    1  UNL1        0.0319
     19 C          67.5831   95.0577    8.9611 C.ar    1  UNL1        0.1671
     20 F          67.4791   96.5025    8.5716 F       1  UNL1       -0.2018
     21 C          66.5763   94.4592    9.8982 C.ar    1  UNL1        0.1634
     22 F          65.4654   95.3055   10.4456 F       1  UNL1       -0.2021
     23 O          61.7815   90.1650   13.0286 O.3     1  UNL1       -0.4321
     24 C          61.1110   89.3082   11.9959 C.2     1  UNL1        0.4051
     25 O          60.0126   89.8772   11.1476 O.2     1  UNL1       -0.2262
     26 N          61.5389   87.8824   11.8116 N.am    1  UNL1       -0.2459
     27 C          62.6373   87.3133   12.6599 C.3     1  UNL1        0.0987
     28 C          63.0652   85.8876   12.4755 C.3     1  UNL1        0.0444
     29 C          62.3948   85.0308   11.4428 C.3     1  UNL1        0.0934
     30 C          61.2963   85.5999   10.5945 C.3     1  UNL1        0.0444
     31 C          60.8684   87.0257   10.7789 C.3     1  UNL1        0.0987
     32 N          62.8226   83.6050   11.2584 N.ar    1  UNL1       -0.2788
     33 C          63.6249   83.0667   10.1110 C.ar    1  UNL1        0.3515
     34 O          64.1402   83.8597    8.9466 O.2     1  UNL1       -0.2444
     35 N          63.8215   81.5962   10.3323 N.ar    1  UNL1       -0.1736
     36 C          63.1407   81.2257   11.6165 C.ar    1  UNL1        0.1613
     37 N          63.0031   79.9183   12.3388 N.ar    1  UNL1       -0.3361
     38 C          62.2483   79.8522   13.6333 C.ar    1  UNL1        0.0736
     39 C          61.6309   81.0938   14.2056 C.ar    1  UNL1        0.0201
     40 C          61.7685   82.4012   13.4834 C.ar    1  UNL1        0.0219
     41 C          62.5234   82.4672   12.1889 C.ar    1  UNL1        0.0979
     42 H          63.4083   79.1034   11.9631 H       1  UNL1        0.1674
@<TRIPOS>BOND
     1     2     1    1
     2     2     3    1
     3     3     4   ar
     4     4     5   ar
     5     5     6   ar
     6     6     7   ar
     7     7     8   ar
     8     8     9    1
     9     9    23    1
    10    23    24    1
    11    24    25    2
    12    24    26   am
    13    26    27    1
    14    27    28    1
    15    28    29    1
    16    29    32    1
    17    32    33   ar
    18    33    34    2
    19    33    35   ar
    20    35    36   ar
    21    36    37   ar
    22    37    38   ar
    23    38    39   ar
    24    39    40   ar
    25    40    41   ar
    26    29    30    1
    27    30    31    1
    28     9    10    1
    29    10    11    1
    30    11    12    1
    31    12    15    1
    32    15    16   ar
    33    16    17   ar
    34    17    18   ar
    35    18    19   ar
    36    19    20    1
    37    19    21   ar
    38    21    22    1
    39    12     2    1
    40    21    15   ar
    41     8     3   ar
    42    31    26    1
    43    41    32   ar
    44    41    36    1
    45     1    13    1
    46     1    14    1
    47    37    42    1
@<TRIPOS>MOLECULE
*****
 42 47 0 0 0
SMALL
GASTEIGER

@<TRIPOS>ATOM
      1 N          63.1486   84.5957   11.2291 N.3     1  UNL1       -0.3185
      2 C          62.8399   85.9669   11.7531 C.3     1  UNL1        0.0790
      3 C          63.2720   86.2370   13.1639 C.ar    1  UNL1        0.0091
      4 C          63.9424   85.0401   13.7704 C.ar    1  UNL1       -0.0001
      5 C          64.4517   85.0998   15.1800 C.ar    1  UNL1        0.0204
      6 C          64.2905   86.3564   15.9831 C.ar    1  UNL1        0.0986
      7 N          63.6201   87.5533   15.3766 N.ar    1  UNL1       -0.2449
      8 C          63.1108   87.4936   13.9670 C.ar    1  UNL1        0.0960
      9 C          62.4778   88.7904   13.5576 C.3     1  UNL1        0.2097
     10 C          61.8495   89.1510   12.2441 C.3     1  UNL1        0.0504
     11 C          61.6992   88.3037   11.0155 C.3     1  UNL1        0.0102
     12 C          62.1400   86.8866   10.7969 C.3     1  UNL1        0.0431
     13 H          63.6213   84.0538   11.9525 H       1  UNL1        0.1191
     14 H          63.7538   84.6724   10.4116 H       1  UNL1        0.1191
     15 C          61.8413   86.3136    9.4433 C.ar    1  UNL1        0.0088
     16 C          62.9146   85.5968    8.6788 C.ar    1  UNL1       -0.0019
     17 C          62.6159   85.0238    7.3251 C.ar    1  UNL1        0.0021
     18 C          61.2439   85.1674    6.7359 C.ar    1  UNL1        0.0319
     19 C          60.1706   85.8842    7.5004 C.ar    1  UNL1        0.1671
     20 F          58.7987   86.0278    6.9112 F       1  UNL1       -0.2018
     21 C          60.4694   86.4572    8.8541 C.ar    1  UNL1        0.1634
     22 F          59.3961   87.1739    9.6185 F       1  UNL1       -0.2021
     23 O          62.4722   89.8694   14.5996 O.3     1  UNL1       -0.4321
     24 C          63.7503   90.5630   14.9679 C.2     1  UNL1        0.4051
     25 O          64.2108   90.5783   16.3953 O.2     1  UNL1       -0.2262
     26 N          64.5677   91.2412   13.9088 N.am    1  UNL1       -0.2459
     27 C          64.1071   91.2258   12.4813 C.3     1  UNL1        0.0987
     28 C          64.9247   91.9041   11.4222 C.3     1  UNL1        0.0444
     29 C          66.2027   92.5976   11.7904 C.3     1  UNL1        0.0934
     30 C          66.6632   92.6129   13.2180 C.3     1  UNL1        0.0444
     31 C          65.8457   91.9347   14.2771 C.3     1  UNL1        0.0987
     32 N          67.0202   93.2758   10.7314 N.ar    1  UNL1       -0.2788
     33 C          68.3830   92.8561   10.2659 C.ar    1  UNL1        0.3515
     34 O          69.1674   91.6845   10.7778 O.2     1  UNL1       -0.2444
     35 N          68.8236   93.8136    9.1987 N.ar    1  UNL1       -0.1736
     36 C          67.7331   94.8251    9.0046 C.ar    1  UNL1        0.1613
     37 N          67.6110   96.0059    8.0877 N.ar    1  UNL1       -0.3361
     38 C          66.3744   96.8544    8.1180 C.ar    1  UNL1        0.0736
     39 C          65.2598   96.5220    9.0653 C.ar    1  UNL1        0.0201
     40 C          65.3819   95.3411    9.9822 C.ar    1  UNL1        0.0219
     41 C          66.6185   94.4928    9.9518 C.ar    1  UNL1        0.0979
     42 H          68.3425   96.2241    7.4660 H       1  UNL1        0.1674
@<TRIPOS>BOND
     1     2     1    1
     2     2     3    1
     3     3     4   ar
     4     4     5   ar
     5     5     6   ar
     6     6     7   ar
     7     7     8   ar
     8     8     9    1
     9     9    23    1
    10    23    24    1
    11    24    25    2
    12    24    26   am
    13    26    27    1
    14    27    28    1
    15    28    29    1
    16    29    32    1
    17    32    33   ar
    18    33    34    2
    19    33    35   ar
    20    35    36   ar
    21    36    37   ar
    22    37    38   ar
    23    38    39   ar
    24    39    40   ar
    25    40    41   ar
    26    29    30    1
    27    30    31    1
    28     9    10    1
    29    10    11    1
    30    11    12    1
    31    12    15    1
    32    15    16   ar
    33    16    17   ar
    34    17    18   ar
    35    18    19   ar
    36    19    20    1
    37    19    21   ar
    38    21    22    1
    39    12     2    1
    40    21    15   ar
    41     8     3   ar
    42    31    26    1
    43    41    32   ar
    44    41    36    1
    45     1    13    1
    46     1    14    1
    47    37    42    1
@<TRIPOS>MOLECULE
*****
 42 47 0 0 0
SMALL
GASTEIGER

@<TRIPOS>ATOM
      1 N          62.5839   82.4330   10.2753 N.3     1  UNL1       -0.3185
      2 C          62.7680   83.4018   11.4056 C.3     1  UNL1        0.0790
      3 C          63.1189   82.7953   12.7319 C.ar    1  UNL1        0.0091
      4 C          63.2143   81.3010   12.6432 C.ar    1  UNL1       -0.0001
      5 C          63.5561   80.4976   13.8629 C.ar    1  UNL1        0.0204
      6 C          63.8025   81.1885   15.1713 C.ar    1  UNL1        0.0986
      7 N          63.7071   82.6828   15.2600 N.ar    1  UNL1       -0.2449
      8 C          63.3653   83.4862   14.0403 C.ar    1  UNL1        0.0960
      9 C          63.3216   84.9542   14.3455 C.3     1  UNL1        0.2097
     10 C          63.0207   86.0939   13.4178 C.3     1  UNL1        0.0504
     11 C          62.6892   86.0470   11.9557 C.3     1  UNL1        0.0102
     12 C          62.5767   84.8489   11.0601 C.3     1  UNL1        0.0431
     13 H          62.7351   81.4828   10.6139 H       1  UNL1        0.1191
     14 H          63.2552   82.6414    9.5362 H       1  UNL1        0.1191
     15 C          62.2267   85.1358    9.6301 C.ar    1  UNL1        0.0088
     16 C          63.0758   84.5819    8.5244 C.ar    1  UNL1       -0.0019
     17 C          62.7258   84.8689    7.0943 C.ar    1  UNL1        0.0021
     18 C          61.5267   85.7098    6.7699 C.ar    1  UNL1        0.0319
     19 C          60.6776   86.2636    7.8755 C.ar    1  UNL1        0.1671
     20 F          59.4786   87.1044    7.5510 F       1  UNL1       -0.2018
     21 C          61.0277   85.9766    9.3056 C.ar    1  UNL1        0.1634
     22 F          60.1786   86.5305   10.4111 F       1  UNL1       -0.2021
     23 O          63.6180   85.3326   15.7665 O.3     1  UNL1       -0.4321
     24 C          63.0932   86.6224   16.3242 C.2     1  UNL1        0.4051
     25 O          61.9985   86.6058   17.3495 O.2     1  UNL1       -0.2262
     26 N          63.6631   87.9288   15.8567 N.am    1  UNL1       -0.2459
     27 C          64.7579   87.9453   14.8314 C.3     1  UNL1        0.0987
     28 C          65.3278   89.2517   14.3639 C.3     1  UNL1        0.0444
     29 C          64.8031   90.5415   14.9216 C.3     1  UNL1        0.0934
     30 C          63.7083   90.5248   15.9470 C.3     1  UNL1        0.0444
     31 C          63.1383   89.2185   16.4145 C.3     1  UNL1        0.0987
     32 N          65.3729   91.8479   14.4542 N.ar    1  UNL1       -0.2788
     33 C          66.0841   92.8554   15.3080 C.ar    1  UNL1        0.3515
     34 O          66.3502   92.7335   16.7792 O.2     1  UNL1       -0.2444
     35 N          66.4824   94.0064   14.4325 N.ar    1  UNL1       -0.1736
     36 C          66.0175   93.7101   13.0375 C.ar    1  UNL1        0.1613
     37 N          66.1298   94.4827   11.7567 N.ar    1  UNL1       -0.3361
     38 C          65.5566   93.9214   10.4893 C.ar    1  UNL1        0.0736
     39 C          64.8709   92.5873   10.5028 C.ar    1  UNL1        0.0201
     40 C          64.7585   91.8147   11.7836 C.ar    1  UNL1        0.0219
     41 C          65.3318   92.3761   13.0508 C.ar    1  UNL1        0.0979
     42 H          66.5799   95.3583   11.7479 H       1  UNL1        0.1674
@<TRIPOS>BOND
     1     2     1    1
     2     2     3    1
     3     3     4   ar
     4     4     5   ar
     5     5     6   ar
     6     6     7   ar
     7     7     8   ar
     8     8     9    1
     9     9    23    1
    10    23    24    1
    11    24    25    2
    12    24    26   am
    13    26    27    1
    14    27    28    1
    15    28    29    1
    16    29    32    1
    17    32    33   ar
    18    33    34    2
    19    33    35   ar
    20    35    36   ar
    21    36    37   ar
    22    37    38   ar
    23    38    39   ar
    24    39    40   ar
    25    40    41   ar
    26    29    30    1
    27    30    31    1
    28     9    10    1
    29    10    11    1
    30    11    12    1
    31    12    15    1
    32    15    16   ar
    33    16    17   ar
    34    17    18   ar
    35    18    19   ar
    36    19    20    1
    37    19    21   ar
    38    21    22    1
    39    12     2    1
    40    21    15   ar
    41     8     3   ar
    42    31    26    1
    43    41    32   ar
    44    41    36    1
    45     1    13    1
    46     1    14    1
    47    37    42    1
