@<TRIPOS>MOLECULE
*****
 38 41 0 0 0
SMALL
GASTEIGER

@<TRIPOS>ATOM
      1 C          65.0362   91.7964   13.3019 C.ar    1  UNL1        0.0575
      2 C          64.0333   90.6883   13.1756 C.ar    1  UNL1        0.0372
      3 C          63.2525   90.5245   11.9054 C.ar    1  UNL1        0.0782
      4 N          63.4747   91.4689   10.7614 N.ar    1  UNL1       -0.2480
      5 C          64.4777   92.5771   10.8877 C.ar    1  UNL1        0.0812
      6 C          64.6999   93.5215    9.7437 C.ar    1  UNL1        0.0214
      7 C          65.7028   94.6297    9.8700 C.ar    1  UNL1        0.0312
      8 C          66.4836   94.7935   11.1403 C.ar    1  UNL1        0.1402
      9 F          67.4866   95.9017   11.2665 F       1  UNL1       -0.2042
     10 C          66.2614   93.8491   12.2842 C.ar    1  UNL1        0.0313
     11 C          65.2585   92.7409   12.1579 C.ar    1  UNL1        0.0243
     12 C          63.8110   89.7438   14.3196 C.ar    1  UNL1        0.0826
     13 C          64.3753   88.3550   14.2661 C.ar    1  UNL1        0.0192
     14 C          64.1532   87.4106   15.4100 C.ar    1  UNL1        0.0031
     15 C          63.3666   87.8549   16.6075 C.ar    1  UNL1        0.0207
     16 C          62.8023   89.2437   16.6610 C.ar    1  UNL1        0.0988
     17 N          63.0245   90.1881   15.5171 N.ar    1  UNL1       -0.2438
     18 N          67.2781   91.6218   14.6034 N.am    1  UNL1       -0.3009
     19 C          65.8170   91.9602   14.5722 C.2     1  UNL1        0.2460
     20 O          65.1368   92.4623   15.8112 O.2     1  UNL1       -0.2701
     21 H          67.7245   91.2923   13.7902 H       1  UNL1        0.1497
     22 C          68.8684   93.0276   16.1016 C.3     1  UNL1        0.0230
     23 C          68.0588   91.7856   15.8737 C.3     1  UNL1        0.0898
     24 C          62.2495   89.4163   11.7791 C.3     1  UNL1        0.1110
     25 C          61.0101   89.4266   12.6239 C.3     1  UNL1        0.0278
     26 N          62.4860   88.2977   10.8081 N.pl3   1  UNL1       -0.3141
     27 H          63.2686   87.7102   10.9151 H       1  UNL1        0.1485
     28 C          61.5299   88.0744    9.6741 C.ar    1  UNL1        0.1429
     29 N          60.6406   89.1905    9.2119 N.ar    1  UNL1       -0.2084
     30 C          59.6846   88.9672    8.0779 C.ar    1  UNL1        0.2012
     31 N          59.6178   87.6278    7.4059 N.ar    1  UNL1       -0.2087
     32 C          60.5070   86.5117    7.8680 C.ar    1  UNL1        0.1396
     33 N          60.4403   85.1723    7.1960 N.pl3   1  UNL1       -0.3420
     34 C          61.4631   86.7350    9.0021 C.ar    1  UNL1        0.1308
     35 H          59.8128   85.0257    6.4517 H       1  UNL1        0.1437
     36 H          61.0239   84.4398    7.4993 H       1  UNL1        0.1437
     37 C          62.3524   85.6189    9.4642 C.1     1  UNL1        0.1061
     38 N          63.2416   84.5028    9.9262 N.1     1  UNL1       -0.1906
@<TRIPOS>BOND
     1    22    23    1
     2    23    18    1
     3    18    19   am
     4    19    20    2
     5    19     1    1
     6     1     2   ar
     7     2    12    1
     8    12    13   ar
     9    13    14   ar
    10    14    15   ar
    11    15    16   ar
    12    16    17   ar
    13     2     3   ar
    14     3    24    1
    15    24    25    1
    16    24    26    1
    17    26    28    1
    18    28    29   ar
    19    29    30   ar
    20    30    31   ar
    21    31    32   ar
    22    32    33    1
    23    32    34   ar
    24    34    37    1
    25    37    38    3
    26     3     4   ar
    27     4     5   ar
    28     5     6   ar
    29     6     7   ar
    30     7     8   ar
    31     8     9    1
    32     8    10   ar
    33    10    11   ar
    34    11     1   ar
    35    17    12   ar
    36    34    28   ar
    37    11     5   ar
    38    18    21    1
    39    26    27    1
    40    33    35    1
    41    33    36    1
@<TRIPOS>MOLECULE
*****
 38 41 0 0 0
SMALL
GASTEIGER

@<TRIPOS>ATOM
      1 C          64.8926   91.4892   13.3771 C.ar    1  UNL1        0.0575
      2 C          63.9068   90.3624   13.2862 C.ar    1  UNL1        0.0372
      3 C          63.1427   90.1350   12.0156 C.ar    1  UNL1        0.0782
      4 N          63.3644   91.0345   10.8359 N.ar    1  UNL1       -0.2480
      5 C          64.3504   92.1613   10.9267 C.ar    1  UNL1        0.0812
      6 C          64.5722   93.0607    9.7470 C.ar    1  UNL1        0.0214
      7 C          65.5581   94.1875    9.8379 C.ar    1  UNL1        0.0312
      8 C          66.3222   94.4149   11.1085 C.ar    1  UNL1        0.1402
      9 F          67.3081   95.5418   11.1993 F       1  UNL1       -0.2042
     10 C          66.1004   93.5155   12.2882 C.ar    1  UNL1        0.0313
     11 C          65.1145   92.3887   12.1973 C.ar    1  UNL1        0.0243
     12 C          63.6849   89.4629   14.4660 C.ar    1  UNL1        0.0826
     13 C          64.4107   88.1534   14.5576 C.ar    1  UNL1        0.0192
     14 C          64.1889   87.2539   15.7373 C.ar    1  UNL1        0.0031
     15 C          63.2413   87.6640   16.8254 C.ar    1  UNL1        0.0207
     16 C          62.5156   88.9735   16.7337 C.ar    1  UNL1        0.0988
     17 N          62.7373   89.8730   15.5541 N.ar    1  UNL1       -0.2438
     18 N          67.1368   91.4753   14.6863 N.am    1  UNL1       -0.3009
     19 C          65.6567   91.7166   14.6477 C.2     1  UNL1        0.2460
     20 O          64.9409   92.1852   15.8797 O.2     1  UNL1       -0.2701
     21 H          67.6066   91.1677   13.8776 H       1  UNL1        0.1497
     22 C          68.7118   92.9525   16.1310 C.3     1  UNL1        0.0230
     23 C          67.9009   91.7027   15.9569 C.3     1  UNL1        0.0898
     24 C          62.1567   89.0082   11.9248 C.3     1  UNL1        0.1110
     25 C          60.7341   89.2857   11.5388 C.3     1  UNL1        0.0278
     26 N          62.5935   87.6039   12.2200 N.pl3   1  UNL1       -0.3141
     27 H          62.8062   87.3384   13.1438 H       1  UNL1        0.1485
     28 C          62.7062   86.6041   11.1075 C.ar    1  UNL1        0.1429
     29 N          62.4520   87.0265    9.6908 N.ar    1  UNL1       -0.2084
     30 C          62.5647   86.0267    8.5783 C.ar    1  UNL1        0.2012
     31 N          62.9315   84.6044    8.8825 N.ar    1  UNL1       -0.2087
     32 C          63.1856   84.1819   10.2991 C.ar    1  UNL1        0.1396
     33 N          63.5525   82.7596   10.6033 N.pl3   1  UNL1       -0.3420
     34 C          63.0730   85.1818   11.4117 C.ar    1  UNL1        0.1308
     35 H          63.6264   82.1034    9.8732 H       1  UNL1        0.1437
     36 H          63.7192   82.4823   11.5331 H       1  UNL1        0.1437
     37 C          63.3271   84.7593   12.8283 C.1     1  UNL1        0.1061
     38 N          63.5812   84.3368   14.2449 N.1     1  UNL1       -0.1906
@<TRIPOS>BOND
     1    22    23    1
     2    23    18    1
     3    18    19   am
     4    19    20    2
     5    19     1    1
     6     1     2   ar
     7     2    12    1
     8    12    13   ar
     9    13    14   ar
    10    14    15   ar
    11    15    16   ar
    12    16    17   ar
    13     2     3   ar
    14     3    24    1
    15    24    25    1
    16    24    26    1
    17    26    28    1
    18    28    29   ar
    19    29    30   ar
    20    30    31   ar
    21    31    32   ar
    22    32    33    1
    23    32    34   ar
    24    34    37    1
    25    37    38    3
    26     3     4   ar
    27     4     5   ar
    28     5     6   ar
    29     6     7   ar
    30     7     8   ar
    31     8     9    1
    32     8    10   ar
    33    10    11   ar
    34    11     1   ar
    35    17    12   ar
    36    34    28   ar
    37    11     5   ar
    38    18    21    1
    39    26    27    1
    40    33    35    1
    41    33    36    1
@<TRIPOS>MOLECULE
*****
 38 41 0 0 0
SMALL
GASTEIGER

@<TRIPOS>ATOM
      1 C          62.4786   85.6966   10.7987 C.ar    1  UNL1        0.0575
      2 C          62.7256   86.8864   11.6780 C.ar    1  UNL1        0.0372
      3 C          63.4938   86.7277   12.9565 C.ar    1  UNL1        0.0782
      4 N          64.0151   85.3791   13.3557 N.ar    1  UNL1       -0.2480
      5 C          63.7682   84.1891   12.4764 C.ar    1  UNL1        0.0812
      6 C          64.2895   82.8405   12.8756 C.ar    1  UNL1        0.0214
      7 C          64.0426   81.6506   11.9963 C.ar    1  UNL1        0.0312
      8 C          63.2743   81.8094   10.7178 C.ar    1  UNL1        0.1402
      9 F          63.0274   80.6194    9.8385 F       1  UNL1       -0.2042
     10 C          62.7530   83.1580   10.3186 C.ar    1  UNL1        0.0313
     11 C          62.9999   84.3478   11.1979 C.ar    1  UNL1        0.0243
     12 C          62.2042   88.2351   11.2788 C.ar    1  UNL1        0.0826
     13 C          62.9946   89.0966   10.3389 C.ar    1  UNL1        0.0192
     14 C          62.4733   90.4452    9.9397 C.ar    1  UNL1        0.0031
     15 C          61.1617   90.9324   10.4804 C.ar    1  UNL1        0.0207
     16 C          60.3714   90.0710   11.4202 C.ar    1  UNL1        0.0988
     17 N          60.8926   88.7223   11.8194 N.ar    1  UNL1       -0.2438
     18 N          60.3204   86.4187    9.5454 N.am    1  UNL1       -0.3009
     19 C          61.7104   85.8553    9.5202 C.2     1  UNL1        0.2460
     20 O          62.3321   85.4507    8.2164 O.2     1  UNL1       -0.2701
     21 H          59.9124   86.6843   10.4011 H       1  UNL1        0.1497
     22 C          59.3171   87.9454    7.6981 C.3     1  UNL1        0.0230
     23 C          59.5522   86.5775    8.2669 C.3     1  UNL1        0.0898
     24 C          63.7407   87.9176   13.8358 C.3     1  UNL1        0.1110
     25 C          64.4561   87.7484   15.1433 C.3     1  UNL1        0.0278
     26 N          63.2722   89.2767   13.4076 N.pl3   1  UNL1       -0.3141
     27 H          62.3896   89.3824   12.9844 H       1  UNL1        0.1485
     28 C          64.1484   90.4747   13.6243 C.ar    1  UNL1        0.1429
     29 N          64.8493   91.1115   12.4609 N.ar    1  UNL1       -0.2084
     30 C          65.7256   92.3095   12.6775 C.ar    1  UNL1        0.2012
     31 N          65.9009   92.8708   14.0575 N.ar    1  UNL1       -0.2087
     32 C          65.2000   92.2341   15.2208 C.ar    1  UNL1        0.1396
     33 N          65.3753   92.7954   16.6007 N.pl3   1  UNL1       -0.3420
     34 C          64.3237   91.0360   15.0042 C.ar    1  UNL1        0.1308
     35 H          65.9504   93.5817   16.7429 H       1  UNL1        0.1437
     36 H          64.9153   92.3775   17.3642 H       1  UNL1        0.1437
     37 C          63.6229   90.3993   16.1675 C.1     1  UNL1        0.1061
     38 N          62.9220   89.7626   17.3308 N.1     1  UNL1       -0.1906
@<TRIPOS>BOND
     1    22    23    1
     2    23    18    1
     3    18    19   am
     4    19    20    2
     5    19     1    1
     6     1     2   ar
     7     2    12    1
     8    12    13   ar
     9    13    14   ar
    10    14    15   ar
    11    15    16   ar
    12    16    17   ar
    13     2     3   ar
    14     3    24    1
    15    24    25    1
    16    24    26    1
    17    26    28    1
    18    28    29   ar
    19    29    30   ar
    20    30    31   ar
    21    31    32   ar
    22    32    33    1
    23    32    34   ar
    24    34    37    1
    25    37    38    3
    26     3     4   ar
    27     4     5   ar
    28     5     6   ar
    29     6     7   ar
    30     7     8   ar
    31     8     9    1
    32     8    10   ar
    33    10    11   ar
    34    11     1   ar
    35    17    12   ar
    36    34    28   ar
    37    11     5   ar
    38    18    21    1
    39    26    27    1
    40    33    35    1
    41    33    36    1
@<TRIPOS>MOLECULE
*****
 38 41 0 0 0
SMALL
GASTEIGER

@<TRIPOS>ATOM
      1 C          62.6229   86.0694   11.6331 C.ar    1  UNL1        0.0575
      2 C          62.8218   87.4161   12.2630 C.ar    1  UNL1        0.0372
      3 C          63.5993   87.5394   13.5398 C.ar    1  UNL1        0.0782
      4 N          64.1779   86.3161   14.1867 N.ar    1  UNL1       -0.2480
      5 C          63.9790   84.9693   13.5568 C.ar    1  UNL1        0.0812
      6 C          64.5576   83.7459   14.2038 C.ar    1  UNL1        0.0214
      7 C          64.3587   82.3992   13.5739 C.ar    1  UNL1        0.0312
      8 C          63.5812   82.2759   12.2971 C.ar    1  UNL1        0.1402
      9 F          63.3824   80.9291   11.6672 F       1  UNL1       -0.2042
     10 C          63.0026   83.4992   11.6501 C.ar    1  UNL1        0.0313
     11 C          63.2015   84.8459   12.2800 C.ar    1  UNL1        0.0243
     12 C          62.2432   88.6395   11.6160 C.ar    1  UNL1        0.0826
     13 C          62.8659   89.1943   10.3693 C.ar    1  UNL1        0.0192
     14 C          62.2874   90.4177    9.7224 C.ar    1  UNL1        0.0031
     15 C          61.0860   91.0863   10.3222 C.ar    1  UNL1        0.0207
     16 C          60.4633   90.5314   11.5689 C.ar    1  UNL1        0.0988
     17 N          61.0418   89.3081   12.2158 N.ar    1  UNL1       -0.2438
     18 N          62.5437   85.5543    9.0878 N.am    1  UNL1       -0.3009
     19 C          61.8454   85.9460   10.3563 C.2     1  UNL1        0.2460
     20 O          60.3696   86.2144   10.3479 O.2     1  UNL1       -0.2701
     21 H          63.5123   85.3782    9.0933 H       1  UNL1        0.1497
     22 C          62.3596   84.7078    6.6384 C.3     1  UNL1        0.0230
     23 C          61.7662   85.4310    7.8110 C.3     1  UNL1        0.0898
     24 C          63.7982   88.8862   14.1697 C.3     1  UNL1        0.1110
     25 C          63.6648   89.0465   15.6551 C.3     1  UNL1        0.0278
     26 N          64.1304   90.0726   13.3141 N.pl3   1  UNL1       -0.3141
     27 H          63.7972   90.1211   12.3890 H       1  UNL1        0.1485
     28 C          64.9702   91.1851   13.8682 C.ar    1  UNL1        0.1429
     29 N          65.3393   91.1937   15.3221 N.ar    1  UNL1       -0.2084
     30 C          66.1791   92.3062   15.8761 C.ar    1  UNL1        0.2012
     31 N          66.6498   93.4102   14.9763 N.ar    1  UNL1       -0.2087
     32 C          66.2807   93.4017   13.5225 C.ar    1  UNL1        0.1396
     33 N          66.7514   94.5057   12.6227 N.pl3   1  UNL1       -0.3420
     34 C          65.4409   92.2891   12.9684 C.ar    1  UNL1        0.1308
     35 H          67.3026   95.2359   12.9863 H       1  UNL1        0.1437
     36 H          66.5092   94.5001   11.6685 H       1  UNL1        0.1437
     37 C          65.0718   92.2806   11.5145 C.1     1  UNL1        0.1061
     38 N          64.7027   92.2721   10.0607 N.1     1  UNL1       -0.1906
@<TRIPOS>BOND
     1    22    23    1
     2    23    18    1
     3    18    19   am
     4    19    20    2
     5    19     1    1
     6     1     2   ar
     7     2    12    1
     8    12    13   ar
     9    13    14   ar
    10    14    15   ar
    11    15    16   ar
    12    16    17   ar
    13     2     3   ar
    14     3    24    1
    15    24    25    1
    16    24    26    1
    17    26    28    1
    18    28    29   ar
    19    29    30   ar
    20    30    31   ar
    21    31    32   ar
    22    32    33    1
    23    32    34   ar
    24    34    37    1
    25    37    38    3
    26     3     4   ar
    27     4     5   ar
    28     5     6   ar
    29     6     7   ar
    30     7     8   ar
    31     8     9    1
    32     8    10   ar
    33    10    11   ar
    34    11     1   ar
    35    17    12   ar
    36    34    28   ar
    37    11     5   ar
    38    18    21    1
    39    26    27    1
    40    33    35    1
    41    33    36    1
@<TRIPOS>MOLECULE
*****
 38 41 0 0 0
SMALL
GASTEIGER

@<TRIPOS>ATOM
      1 C          62.8762   89.2534   11.6491 C.ar    1  UNL1        0.0575
      2 C          63.5403   88.8366   12.9278 C.ar    1  UNL1        0.0372
      3 C          63.5152   87.3980   13.3517 C.ar    1  UNL1        0.0782
      4 N          62.8260   86.3762   12.4969 N.ar    1  UNL1       -0.2480
      5 C          62.1618   86.7929   11.2181 C.ar    1  UNL1        0.0812
      6 C          61.4726   85.7711   10.3633 C.ar    1  UNL1        0.0214
      7 C          60.8084   86.1879    9.0846 C.ar    1  UNL1        0.0312
      8 C          60.8335   87.6265    8.6607 C.ar    1  UNL1        0.1402
      9 F          60.1694   88.0433    7.3819 F       1  UNL1       -0.2042
     10 C          61.5228   88.6484    9.5155 C.ar    1  UNL1        0.0313
     11 C          62.1869   88.2316   10.7942 C.ar    1  UNL1        0.0243
     12 C          64.2296   89.8585   13.7827 C.ar    1  UNL1        0.0826
     13 C          63.5464   90.3985   15.0040 C.ar    1  UNL1        0.0192
     14 C          64.2356   91.4203   15.8589 C.ar    1  UNL1        0.0031
     15 C          65.6080   91.9021   15.4924 C.ar    1  UNL1        0.0207
     16 C          66.2913   91.3621   14.2711 C.ar    1  UNL1        0.0988
     17 N          65.6020   90.3403   13.4163 N.ar    1  UNL1       -0.2438
     18 N          64.2075   91.3576   10.9074 N.am    1  UNL1       -0.3009
     19 C          62.9013   90.6921   11.2252 C.2     1  UNL1        0.2460
     20 O          61.6203   91.4652   11.1191 O.2     1  UNL1       -0.2701
     21 H          65.0483   90.8502   10.9770 H       1  UNL1        0.1497
     22 C          65.4184   93.6543   10.8116 C.3     1  UNL1        0.0230
     23 C          64.2326   92.7963   10.4835 C.3     1  UNL1        0.0898
     24 C          64.1794   86.9812   14.6305 C.3     1  UNL1        0.1110
     25 C          63.9609   87.7769   15.8831 C.3     1  UNL1        0.0278
     26 N          65.0621   85.7688   14.6566 N.pl3   1  UNL1       -0.3141
     27 H          65.9762   85.8330   15.0165 H       1  UNL1        0.1485
     28 C          64.5521   84.4584   14.1344 C.ar    1  UNL1        0.1429
     29 N          65.2391   83.7930   12.9787 N.ar    1  UNL1       -0.2084
     30 C          64.7291   82.4826   12.4565 C.ar    1  UNL1        0.2012
     31 N          63.5321   81.8376   13.0899 N.ar    1  UNL1       -0.2087
     32 C          62.8451   82.5029   14.2454 C.ar    1  UNL1        0.1396
     33 N          61.6481   81.8578   14.8788 N.pl3   1  UNL1       -0.3420
     34 C          63.3551   83.8133   14.7677 C.ar    1  UNL1        0.1308
     35 H          61.3134   80.9978   14.5360 H       1  UNL1        0.1437
     36 H          61.1972   82.2945   15.6373 H       1  UNL1        0.1437
     37 C          62.6682   84.4787   15.9233 C.1     1  UNL1        0.1061
     38 N          61.9812   85.1440   17.0789 N.1     1  UNL1       -0.1906
@<TRIPOS>BOND
     1    22    23    1
     2    23    18    1
     3    18    19   am
     4    19    20    2
     5    19     1    1
     6     1     2   ar
     7     2    12    1
     8    12    13   ar
     9    13    14   ar
    10    14    15   ar
    11    15    16   ar
    12    16    17   ar
    13     2     3   ar
    14     3    24    1
    15    24    25    1
    16    24    26    1
    17    26    28    1
    18    28    29   ar
    19    29    30   ar
    20    30    31   ar
    21    31    32   ar
    22    32    33    1
    23    32    34   ar
    24    34    37    1
    25    37    38    3
    26     3     4   ar
    27     4     5   ar
    28     5     6   ar
    29     6     7   ar
    30     7     8   ar
    31     8     9    1
    32     8    10   ar
    33    10    11   ar
    34    11     1   ar
    35    17    12   ar
    36    34    28   ar
    37    11     5   ar
    38    18    21    1
    39    26    27    1
    40    33    35    1
    41    33    36    1
@<TRIPOS>MOLECULE
*****
 38 41 0 0 0
SMALL
GASTEIGER

@<TRIPOS>ATOM
      1 C          60.4089   94.3858   -2.9732 C.ar    1  UNL1        0.0575
      2 C          60.6321   94.5762   -1.5023 C.ar    1  UNL1        0.0372
      3 C          59.4757   94.4900   -0.5508 C.ar    1  UNL1        0.0782
      4 N          58.0960   94.2133   -1.0704 N.ar    1  UNL1       -0.2480
      5 C          57.8728   94.0228   -2.5415 C.ar    1  UNL1        0.0812
      6 C          56.4932   93.7461   -3.0610 C.ar    1  UNL1        0.0214
      7 C          56.2700   93.5557   -4.5320 C.ar    1  UNL1        0.0312
      8 C          57.4264   93.6419   -5.4835 C.ar    1  UNL1        0.1402
      9 F          57.2032   93.4514   -6.9545 F       1  UNL1       -0.2042
     10 C          58.8061   93.9186   -4.9639 C.ar    1  UNL1        0.0313
     11 C          59.0292   94.1090   -3.4929 C.ar    1  UNL1        0.0243
     12 C          62.0118   94.8529   -0.9826 C.ar    1  UNL1        0.0826
     13 C          62.9207   93.7146   -0.6247 C.ar    1  UNL1        0.0192
     14 C          64.3003   93.9913   -0.1051 C.ar    1  UNL1        0.0031
     15 C          64.7711   95.4062    0.0566 C.ar    1  UNL1        0.0207
     16 C          63.8622   96.5446   -0.3012 C.ar    1  UNL1        0.0988
     17 N          62.4825   96.2679   -0.8209 N.ar    1  UNL1       -0.2438
     18 N          62.4615   93.2859   -4.1254 N.am    1  UNL1       -0.3009
     19 C          61.5654   94.4720   -3.9247 C.2     1  UNL1        0.2460
     20 O          61.8257   95.7442   -4.6754 O.2     1  UNL1       -0.2701
     21 H          62.2906   92.4508   -3.6326 H       1  UNL1        0.1497
     22 C          64.8668   92.5844   -4.8126 C.3     1  UNL1        0.0230
     23 C          63.6179   93.3721   -5.0768 C.3     1  UNL1        0.0898
     24 C          59.6989   94.6805    0.9202 C.3     1  UNL1        0.1110
     25 C          60.3474   95.9358    1.4240 C.3     1  UNL1        0.0278
     26 N          59.2737   93.6158    1.8874 N.pl3   1  UNL1       -0.3141
     27 H          58.3165   93.4445    2.0415 H       1  UNL1        0.1485
     28 C          60.3068   92.8120    2.6199 C.ar    1  UNL1        0.1429
     29 N          61.7232   92.7834    2.1266 N.ar    1  UNL1       -0.2084
     30 C          62.7563   91.9796    2.8591 C.ar    1  UNL1        0.2012
     31 N          62.3732   91.2045    4.0849 N.ar    1  UNL1       -0.2087
     32 C          60.9570   91.2332    4.5781 C.ar    1  UNL1        0.1396
     33 N          60.5739   90.4581    5.8039 N.pl3   1  UNL1       -0.3420
     34 C          59.9237   92.0369    3.8456 C.ar    1  UNL1        0.1308
     35 H          61.2520   89.9306    6.2846 H       1  UNL1        0.1437
     36 H          59.6443   90.4769    6.1276 H       1  UNL1        0.1437
     37 C          58.5075   92.0656    4.3389 C.1     1  UNL1        0.1061
     38 N          57.0912   92.0942    4.8322 N.1     1  UNL1       -0.1906
@<TRIPOS>BOND
     1    22    23    1
     2    23    18    1
     3    18    19   am
     4    19    20    2
     5    19     1    1
     6     1     2   ar
     7     2    12    1
     8    12    13   ar
     9    13    14   ar
    10    14    15   ar
    11    15    16   ar
    12    16    17   ar
    13     2     3   ar
    14     3    24    1
    15    24    25    1
    16    24    26    1
    17    26    28    1
    18    28    29   ar
    19    29    30   ar
    20    30    31   ar
    21    31    32   ar
    22    32    33    1
    23    32    34   ar
    24    34    37    1
    25    37    38    3
    26     3     4   ar
    27     4     5   ar
    28     5     6   ar
    29     6     7   ar
    30     7     8   ar
    31     8     9    1
    32     8    10   ar
    33    10    11   ar
    34    11     1   ar
    35    17    12   ar
    36    34    28   ar
    37    11     5   ar
    38    18    21    1
    39    26    27    1
    40    33    35    1
    41    33    36    1
@<TRIPOS>MOLECULE
*****
 38 41 0 0 0
SMALL
GASTEIGER

@<TRIPOS>ATOM
      1 C          60.6686   87.1140    8.6737 C.ar    1  UNL1        0.0575
      2 C          61.0734   87.5965   10.0350 C.ar    1  UNL1        0.0372
      3 C          62.2713   87.0033   10.7155 C.ar    1  UNL1        0.0782
      4 N          63.0645   85.9276   10.0347 N.ar    1  UNL1       -0.2480
      5 C          62.6598   85.4449    8.6732 C.ar    1  UNL1        0.0812
      6 C          63.4529   84.3692    7.9924 C.ar    1  UNL1        0.0214
      7 C          63.0482   83.8867    6.6311 C.ar    1  UNL1        0.0312
      8 C          61.8502   84.4799    5.9506 C.ar    1  UNL1        0.1402
      9 F          61.4455   83.9972    4.5892 F       1  UNL1       -0.2042
     10 C          61.0571   85.5556    6.6314 C.ar    1  UNL1        0.0313
     11 C          61.4618   86.0382    7.9927 C.ar    1  UNL1        0.0243
     12 C          60.2802   88.6723   10.7159 C.ar    1  UNL1        0.0826
     13 C          60.3768   90.0912   10.2389 C.ar    1  UNL1        0.0192
     14 C          59.5837   91.1670   10.9198 C.ar    1  UNL1        0.0031
     15 C          58.6939   90.8239   12.0776 C.ar    1  UNL1        0.0207
     16 C          58.5973   89.4050   12.5546 C.ar    1  UNL1        0.0988
     17 N          59.3904   88.3292   11.8737 N.ar    1  UNL1       -0.2438
     18 N          59.5988   88.9979    7.2396 N.am    1  UNL1       -0.3009
     19 C          59.4707   87.7072    7.9932 C.2     1  UNL1        0.2460
     20 O          58.1447   87.0097    8.0662 O.2     1  UNL1       -0.2701
     21 H          60.4691   89.4556    7.1917 H       1  UNL1        0.1497
     22 C          58.5769   90.6919    5.5556 C.3     1  UNL1        0.0230
     23 C          58.4009   89.5911    6.5591 C.3     1  UNL1        0.0898
     24 C          62.6760   87.4859   12.0769 C.3     1  UNL1        0.1110
     25 C          63.4753   86.5953   12.9813 C.3     1  UNL1        0.0278
     26 N          62.2815   88.8590   12.5338 N.pl3   1  UNL1       -0.3141
     27 H          61.3516   89.0406   12.8012 H       1  UNL1        0.1485
     28 C          63.3038   89.9555   12.5832 C.ar    1  UNL1        0.1429
     29 N          63.6418   90.7225   11.3392 N.ar    1  UNL1       -0.2084
     30 C          64.6641   91.8190   11.3886 C.ar    1  UNL1        0.2012
     31 N          65.3485   92.1487   12.6821 N.ar    1  UNL1       -0.2087
     32 C          65.0105   91.3817   13.9261 C.ar    1  UNL1        0.1396
     33 N          65.6949   91.7113   15.2195 N.pl3   1  UNL1       -0.3420
     34 C          63.9882   90.2852   13.8767 C.ar    1  UNL1        0.1308
     35 H          66.3659   92.4310   15.2520 H       1  UNL1        0.1437
     36 H          65.4731   91.2080   16.0360 H       1  UNL1        0.1437
     37 C          63.6502   89.5182   15.1207 C.1     1  UNL1        0.1061
     38 N          63.3123   88.7513   16.3647 N.1     1  UNL1       -0.1906
@<TRIPOS>BOND
     1    22    23    1
     2    23    18    1
     3    18    19   am
     4    19    20    2
     5    19     1    1
     6     1     2   ar
     7     2    12    1
     8    12    13   ar
     9    13    14   ar
    10    14    15   ar
    11    15    16   ar
    12    16    17   ar
    13     2     3   ar
    14     3    24    1
    15    24    25    1
    16    24    26    1
    17    26    28    1
    18    28    29   ar
    19    29    30   ar
    20    30    31   ar
    21    31    32   ar
    22    32    33    1
    23    32    34   ar
    24    34    37    1
    25    37    38    3
    26     3     4   ar
    27     4     5   ar
    28     5     6   ar
    29     6     7   ar
    30     7     8   ar
    31     8     9    1
    32     8    10   ar
    33    10    11   ar
    34    11     1   ar
    35    17    12   ar
    36    34    28   ar
    37    11     5   ar
    38    18    21    1
    39    26    27    1
    40    33    35    1
    41    33    36    1
@<TRIPOS>MOLECULE
*****
 38 41 0 0 0
SMALL
GASTEIGER

@<TRIPOS>ATOM
      1 C          63.0065   84.8650   11.9361 C.ar    1  UNL1        0.0575
      2 C          62.6099   86.0754   11.1440 C.ar    1  UNL1        0.0372
      3 C          62.8071   87.4464   11.7199 C.ar    1  UNL1        0.0782
      4 N          63.4009   87.6069   13.0879 N.ar    1  UNL1       -0.2480
      5 C          63.7976   86.3964   13.8801 C.ar    1  UNL1        0.0812
      6 C          64.3914   86.5569   15.2482 C.ar    1  UNL1        0.0214
      7 C          64.7880   85.3464   16.0403 C.ar    1  UNL1        0.0312
      8 C          64.5908   83.9755   15.4644 C.ar    1  UNL1        0.1402
      9 F          64.9874   82.7650   16.2566 F       1  UNL1       -0.2042
     10 C          63.9970   83.8150   14.0963 C.ar    1  UNL1        0.0313
     11 C          63.6004   85.0255   13.3042 C.ar    1  UNL1        0.0243
     12 C          62.0160   85.9150    9.7759 C.ar    1  UNL1        0.0826
     13 C          62.8711   85.4418    8.6379 C.ar    1  UNL1        0.0192
     14 C          62.2773   85.2813    7.2699 C.ar    1  UNL1        0.0031
     15 C          60.8285   85.5941    7.0397 C.ar    1  UNL1        0.0207
     16 C          59.9734   86.0673    8.1777 C.ar    1  UNL1        0.0988
     17 N          60.5672   86.2278    9.5458 N.ar    1  UNL1       -0.2438
     18 N          63.8706   82.8854   10.4923 N.am    1  UNL1       -0.3009
     19 C          62.8093   83.4941   11.3602 C.2     1  UNL1        0.2460
     20 O          61.5508   82.7319   11.6521 O.2     1  UNL1       -0.2701
     21 H          64.6965   83.3857   10.3007 H       1  UNL1        0.1497
     22 C          63.0536   80.4326   10.7504 C.3     1  UNL1        0.0230
     23 C          63.6733   81.5145    9.9164 C.3     1  UNL1        0.0898
     24 C          62.4105   88.6568   10.9277 C.3     1  UNL1        0.1110
     25 C          62.1874   88.5451    9.4486 C.3     1  UNL1        0.0278
     26 N          62.2370   89.9789   11.6146 N.pl3   1  UNL1       -0.3141
     27 H          61.3574   90.2345   11.9755 H       1  UNL1        0.1485
     28 C          63.4036   90.9117   11.7516 C.ar    1  UNL1        0.1429
     29 N          63.9710   91.5865   10.5379 N.ar    1  UNL1       -0.2084
     30 C          65.1376   92.5192   10.6749 C.ar    1  UNL1        0.2012
     31 N          65.7369   92.7773   12.0256 N.ar    1  UNL1       -0.2087
     32 C          65.1696   92.1027   13.2392 C.ar    1  UNL1        0.1396
     33 N          65.7690   92.3608   14.5898 N.pl3   1  UNL1       -0.3420
     34 C          64.0029   91.1698   13.1022 C.ar    1  UNL1        0.1308
     35 H          66.5347   92.9730   14.6797 H       1  UNL1        0.1437
     36 H          65.3966   91.9179   15.3863 H       1  UNL1        0.1437
     37 C          63.4356   90.4951   14.3158 C.1     1  UNL1        0.1061
     38 N          62.8683   89.8205   15.5294 N.1     1  UNL1       -0.1906
@<TRIPOS>BOND
     1    22    23    1
     2    23    18    1
     3    18    19   am
     4    19    20    2
     5    19     1    1
     6     1     2   ar
     7     2    12    1
     8    12    13   ar
     9    13    14   ar
    10    14    15   ar
    11    15    16   ar
    12    16    17   ar
    13     2     3   ar
    14     3    24    1
    15    24    25    1
    16    24    26    1
    17    26    28    1
    18    28    29   ar
    19    29    30   ar
    20    30    31   ar
    21    31    32   ar
    22    32    33    1
    23    32    34   ar
    24    34    37    1
    25    37    38    3
    26     3     4   ar
    27     4     5   ar
    28     5     6   ar
    29     6     7   ar
    30     7     8   ar
    31     8     9    1
    32     8    10   ar
    33    10    11   ar
    34    11     1   ar
    35    17    12   ar
    36    34    28   ar
    37    11     5   ar
    38    18    21    1
    39    26    27    1
    40    33    35    1
    41    33    36    1
@<TRIPOS>MOLECULE
*****
 38 41 0 0 0
SMALL
GASTEIGER

@<TRIPOS>ATOM
      1 C          57.6784   95.5794   -3.7032 C.ar    1  UNL1        0.0575
      2 C          58.6774   95.5087   -2.5866 C.ar    1  UNL1        0.0372
      3 C          58.2211   95.6320   -1.1631 C.ar    1  UNL1        0.0782
      4 N          56.7658   95.8260   -0.8561 N.ar    1  UNL1       -0.2480
      5 C          55.7666   95.8967   -1.9727 C.ar    1  UNL1        0.0812
      6 C          54.3113   96.0907   -1.6657 C.ar    1  UNL1        0.0214
      7 C          53.3123   96.1614   -2.7823 C.ar    1  UNL1        0.0312
      8 C          53.7685   96.0381   -4.2059 C.ar    1  UNL1        0.1402
      9 F          52.7694   96.1088   -5.3225 F       1  UNL1       -0.2042
     10 C          55.2239   95.8441   -4.5129 C.ar    1  UNL1        0.0313
     11 C          56.2229   95.7734   -3.3963 C.ar    1  UNL1        0.0243
     12 C          60.1329   95.3147   -2.8936 C.ar    1  UNL1        0.0826
     13 C          60.6768   93.9331   -3.1066 C.ar    1  UNL1        0.0192
     14 C          62.1321   93.7391   -3.4135 C.ar    1  UNL1        0.0031
     15 C          63.0436   94.9267   -3.5075 C.ar    1  UNL1        0.0207
     16 C          62.4997   96.3083   -3.2945 C.ar    1  UNL1        0.0988
     17 N          61.0443   96.5023   -2.9875 N.ar    1  UNL1       -0.2438
     18 N          58.3066   94.1001   -5.7445 N.am    1  UNL1       -0.3009
     19 C          58.1347   95.4562   -5.1268 C.2     1  UNL1        0.2460
     20 O          58.4190   96.6889   -5.9327 O.2     1  UNL1       -0.2701
     21 H          58.1200   93.2910   -5.2156 H       1  UNL1        0.1497
     22 C          60.2056   94.1965   -7.5150 C.3     1  UNL1        0.0230
     23 C          58.7629   93.9768   -7.1681 C.3     1  UNL1        0.0898
     24 C          59.2203   95.5613   -0.0464 C.3     1  UNL1        0.1110
     25 C          60.0258   96.7733    0.3171 C.3     1  UNL1        0.0278
     26 N          59.4139   94.2786    0.7067 N.pl3   1  UNL1       -0.3141
     27 H          58.6322   93.7730    1.0269 H       1  UNL1        0.1485
     28 C          60.7985   93.7662    0.9718 C.ar    1  UNL1        0.1429
     29 N          61.9149   94.0985    0.0266 N.ar    1  UNL1       -0.2084
     30 C          63.2995   93.5861    0.2917 C.ar    1  UNL1        0.2012
     31 N          63.5677   92.7415    1.5019 N.ar    1  UNL1       -0.2087
     32 C          62.4514   92.4092    2.4471 C.ar    1  UNL1        0.1396
     33 N          62.7196   91.5646    3.6573 N.pl3   1  UNL1       -0.3420
     34 C          61.0667   92.9216    2.1820 C.ar    1  UNL1        0.1308
     35 H          63.6284   91.2283    3.8313 H       1  UNL1        0.1437
     36 H          61.9869   91.3465    4.2776 H       1  UNL1        0.1437
     37 C          59.9503   92.5893    3.1271 C.1     1  UNL1        0.1061
     38 N          58.8340   92.2571    4.0722 N.1     1  UNL1       -0.1906
@<TRIPOS>BOND
     1    22    23    1
     2    23    18    1
     3    18    19   am
     4    19    20    2
     5    19     1    1
     6     1     2   ar
     7     2    12    1
     8    12    13   ar
     9    13    14   ar
    10    14    15   ar
    11    15    16   ar
    12    16    17   ar
    13     2     3   ar
    14     3    24    1
    15    24    25    1
    16    24    26    1
    17    26    28    1
    18    28    29   ar
    19    29    30   ar
    20    30    31   ar
    21    31    32   ar
    22    32    33    1
    23    32    34   ar
    24    34    37    1
    25    37    38    3
    26     3     4   ar
    27     4     5   ar
    28     5     6   ar
    29     6     7   ar
    30     7     8   ar
    31     8     9    1
    32     8    10   ar
    33    10    11   ar
    34    11     1   ar
    35    17    12   ar
    36    34    28   ar
    37    11     5   ar
    38    18    21    1
    39    26    27    1
    40    33    35    1
    41    33    36    1
