@<TRIPOS>MOLECULE
*****
 41 46 0 0 0
SMALL
GASTEIGER

@<TRIPOS>ATOM
      1 C          62.1391   81.3000   12.3913 C.3     1  UNL1        0.0718
      2 C          62.4047   82.3360   13.4430 C.ar    1  UNL1        0.1207
      3 N          62.4701   82.0945   14.9220 N.ar    1  UNL1       -0.2294
      4 C          62.7573   83.4047   15.5935 C.ar    1  UNL1        0.1174
      5 C          62.9312   83.7762   17.0363 C.ar    1  UNL1        0.1193
      6 N          63.2172   85.1991   17.4151 N.ar    1  UNL1       -0.2421
      7 C          63.3293   86.2504   16.3511 C.ar    1  UNL1        0.0850
      8 C          63.6153   87.6734   16.7300 C.ar    1  UNL1        0.0488
      9 C          63.7274   88.7248   15.6660 C.ar    1  UNL1        0.1416
     10 F          64.0134   90.1477   16.0448 F       1  UNL1       -0.2041
     11 C          63.5534   88.3532   14.2232 C.ar    1  UNL1        0.0284
     12 C          63.2674   86.9303   13.8444 C.ar    1  UNL1        0.0052
     13 C          63.1554   85.8789   14.9083 C.ar    1  UNL1        0.0351
     14 C          62.8694   84.4560   14.5295 C.ar    1  UNL1        0.0815
     15 N          62.6514   83.7956   13.2005 N.ar    1  UNL1       -0.3167
     16 C          62.6760   84.4754   11.8636 C.3     1  UNL1        0.0867
     17 C          63.5869   83.9727   10.7832 C.3     1  UNL1        0.0239
     18 C          63.6114   84.6525    9.4463 C.3     1  UNL1        0.0172
     19 C          62.7249   85.8351    9.1898 C.3     1  UNL1        0.0533
     20 N          63.4108   85.7304    7.8599 N.3     1  UNL1       -0.3223
     21 C          61.8139   86.3378   10.2702 C.3     1  UNL1        0.0172
     22 C          61.7894   85.6580   11.6071 C.3     1  UNL1        0.0239
     23 H          64.0658   84.9487    7.8757 H       1  UNL1        0.1188
     24 H          63.9176   86.5949    7.6698 H       1  UNL1        0.1188
     25 C          62.0766   86.9813    8.4715 C.3     1  UNL1        0.1195
     26 C          60.6059   86.9476    8.1792 C.1     1  UNL1        0.0745
     27 N          59.1350   86.9140    7.8868 N.1     1  UNL1       -0.1958
     28 C          63.6655   89.4046   13.1592 C.ar    1  UNL1        0.0129
     29 C          62.7450   89.3745   11.9752 C.ar    1  UNL1        0.0040
     30 C          62.8570   90.4259   10.9112 C.ar    1  UNL1        0.0377
     31 C          63.8896   91.5073   11.0312 C.ar    1  UNL1        0.1495
     32 C          64.8101   91.5373   12.2152 C.ar    1  UNL1        0.0490
     33 C          64.6980   90.4860   13.2792 C.ar    1  UNL1        0.0608
     34 CL         65.6184   90.5160   14.4631 Cl      1  UNL1       -0.0821
     35 O          64.0017   92.5587    9.9673 O.3     1  UNL1       -0.4223
     36 C          65.1853   93.4800    9.9450 C.ar    1  UNL1        0.3246
     37 N          65.0157   94.9275   10.2996 N.ar    1  UNL1       -0.1924
     38 C          66.1993   95.8488   10.2773 C.ar    1  UNL1        0.1053
     39 C          67.5524   95.3225    9.9003 C.ar    1  UNL1        0.0416
     40 C          67.7219   93.8749    9.5457 C.ar    1  UNL1        0.1053
     41 N          66.5384   92.9537    9.5680 N.ar    1  UNL1       -0.1924
@<TRIPOS>BOND
     1     1     2    1
     2     2     3   ar
     3     3     4   ar
     4     4     5   ar
     5     5     6   ar
     6     6     7   ar
     7     7     8   ar
     8     8     9   ar
     9     9    10    1
    10     9    11   ar
    11    11    28    1
    12    28    29   ar
    13    29    30   ar
    14    30    31   ar
    15    31    35    1
    16    35    36    1
    17    36    37   ar
    18    37    38   ar
    19    38    39   ar
    20    39    40   ar
    21    40    41   ar
    22    31    32   ar
    23    32    33   ar
    24    33    34    1
    25    11    12   ar
    26    12    13   ar
    27    13    14   ar
    28    14    15   ar
    29    16    15    1
    30    16    17    1
    31    17    18    1
    32    18    19    1
    33    19    20    1
    34    19    25    1
    35    25    26    1
    36    26    27    3
    37    19    21    1
    38    21    22    1
    39    15     2   ar
    40    22    16    1
    41    14     4   ar
    42    13     7   ar
    43    33    28   ar
    44    41    36   ar
    45    20    23    1
    46    20    24    1
@<TRIPOS>MOLECULE
*****
 41 46 0 0 0
SMALL
GASTEIGER

@<TRIPOS>ATOM
      1 C          59.4557   92.8436    2.1792 C.3     1  UNL1        0.0718
      2 C          58.8477   92.9227    0.8102 C.ar    1  UNL1        0.1207
      3 N          57.4534   92.5120    0.4397 N.ar    1  UNL1       -0.2294
      4 C          57.2711   92.7620   -1.0281 C.ar    1  UNL1        0.1174
      5 C          56.1037   92.5479   -1.9453 C.ar    1  UNL1        0.1193
      6 N          56.2179   92.8990   -3.3991 N.ar    1  UNL1       -0.2421
      7 C          57.4996   93.4642   -3.9357 C.ar    1  UNL1        0.0850
      8 C          57.6138   93.8153   -5.3896 C.ar    1  UNL1        0.0488
      9 C          58.8954   94.3804   -5.9262 C.ar    1  UNL1        0.1416
     10 F          59.0097   94.7315   -7.3800 F       1  UNL1       -0.2041
     11 C          60.0629   94.5944   -5.0089 C.ar    1  UNL1        0.0284
     12 C          59.9487   94.2433   -3.5551 C.ar    1  UNL1        0.0052
     13 C          58.6670   93.6782   -3.0185 C.ar    1  UNL1        0.0351
     14 C          58.5528   93.3271   -1.5647 C.ar    1  UNL1        0.0815
     15 N          59.5271   93.4264   -0.4286 N.ar    1  UNL1       -0.3167
     16 C          60.9339   93.9394   -0.5159 C.3     1  UNL1        0.0867
     17 C          62.0179   93.0652   -1.0732 C.3     1  UNL1        0.0239
     18 C          63.4247   93.5782   -1.1606 C.3     1  UNL1        0.0172
     19 C          63.7476   94.9656   -0.6906 C.3     1  UNL1        0.0533
     20 N          65.1078   94.5192   -1.1388 N.3     1  UNL1       -0.3223
     21 C          62.6637   95.8399   -0.1333 C.3     1  UNL1        0.0172
     22 C          61.2569   95.3269   -0.0459 C.3     1  UNL1        0.0239
     23 H          65.0521   93.5653   -1.4956 H       1  UNL1        0.1188
     24 H          65.7529   94.5498   -0.3493 H       1  UNL1        0.1188
     25 C          64.5429   96.1980   -0.3763 C.3     1  UNL1        0.1195
     26 C          64.9777   96.4707    1.0331 C.1     1  UNL1        0.0745
     27 N          65.4127   96.7434    2.4425 N.1     1  UNL1       -0.1958
     28 C          61.3446   95.1596   -5.5456 C.ar    1  UNL1        0.0129
     29 C          62.0464   96.2603   -4.8066 C.ar    1  UNL1        0.0040
     30 C          63.3281   96.8254   -5.3432 C.ar    1  UNL1        0.0377
     31 C          63.9079   96.2898   -6.6188 C.ar    1  UNL1        0.1495
     32 C          63.2061   95.1892   -7.3577 C.ar    1  UNL1        0.0490
     33 C          61.9244   94.6241   -6.8211 C.ar    1  UNL1        0.0608
     34 CL         61.2226   93.5235   -7.5600 Cl      1  UNL1       -0.0821
     35 O          65.1895   96.8550   -7.1554 O.3     1  UNL1       -0.4223
     36 C          66.4011   95.9794   -7.2803 C.ar    1  UNL1        0.3246
     37 N          67.7720   96.5873   -7.2512 N.ar    1  UNL1       -0.1924
     38 C          68.9836   95.7117   -7.3761 C.ar    1  UNL1        0.1053
     39 C          68.8241   94.2282   -7.5301 C.ar    1  UNL1        0.0416
     40 C          67.4531   93.6202   -7.5592 C.ar    1  UNL1        0.1053
     41 N          66.2416   94.4958   -7.4343 N.ar    1  UNL1       -0.1924
@<TRIPOS>BOND
     1     1     2    1
     2     2     3   ar
     3     3     4   ar
     4     4     5   ar
     5     5     6   ar
     6     6     7   ar
     7     7     8   ar
     8     8     9   ar
     9     9    10    1
    10     9    11   ar
    11    11    28    1
    12    28    29   ar
    13    29    30   ar
    14    30    31   ar
    15    31    35    1
    16    35    36    1
    17    36    37   ar
    18    37    38   ar
    19    38    39   ar
    20    39    40   ar
    21    40    41   ar
    22    31    32   ar
    23    32    33   ar
    24    33    34    1
    25    11    12   ar
    26    12    13   ar
    27    13    14   ar
    28    14    15   ar
    29    16    15    1
    30    16    17    1
    31    17    18    1
    32    18    19    1
    33    19    20    1
    34    19    25    1
    35    25    26    1
    36    26    27    3
    37    19    21    1
    38    21    22    1
    39    15     2   ar
    40    22    16    1
    41    14     4   ar
    42    13     7   ar
    43    33    28   ar
    44    41    36   ar
    45    20    23    1
    46    20    24    1
@<TRIPOS>MOLECULE
*****
 41 46 0 0 0
SMALL
GASTEIGER

@<TRIPOS>ATOM
      1 C          63.1390   91.4556   10.3429 C.3     1  UNL1        0.0718
      2 C          63.2389   91.0344   11.7791 C.ar    1  UNL1        0.1207
      3 N          63.4330   91.9466   12.9540 N.ar    1  UNL1       -0.2294
      4 C          63.4763   91.1031   14.1936 C.ar    1  UNL1        0.1174
      5 C          63.6464   91.4551   15.6417 C.ar    1  UNL1        0.1193
      6 N          63.6492   90.3737   16.6811 N.ar    1  UNL1       -0.2421
      7 C          63.4819   88.9402   16.2724 C.ar    1  UNL1        0.0850
      8 C          63.4847   87.8587   17.3119 C.ar    1  UNL1        0.0488
      9 C          63.3174   86.4252   16.9031 C.ar    1  UNL1        0.1416
     10 F          63.3202   85.3437   17.9425 F       1  UNL1       -0.2041
     11 C          63.1472   86.0731   15.4549 C.ar    1  UNL1        0.0284
     12 C          63.1444   87.1546   14.4155 C.ar    1  UNL1        0.0052
     13 C          63.3117   88.5881   14.8243 C.ar    1  UNL1        0.0351
     14 C          63.3089   89.6696   13.7849 C.ar    1  UNL1        0.0815
     15 N          63.1622   89.6272   12.2927 N.ar    1  UNL1       -0.3167
     16 C          62.9722   88.3939   11.4602 C.3     1  UNL1        0.0867
     17 C          63.2566   87.0426   12.0456 C.3     1  UNL1        0.0239
     18 C          63.0666   85.8094   11.2131 C.3     1  UNL1        0.0172
     19 C          62.5921   85.9275    9.7951 C.3     1  UNL1        0.0533
     20 N          62.7282   84.4374    9.9009 N.3     1  UNL1       -0.3223
     21 C          62.3077   87.2789    9.2095 C.3     1  UNL1        0.0172
     22 C          62.4977   88.5121   10.0420 C.3     1  UNL1        0.0239
     23 H          63.0526   84.1912   10.8360 H       1  UNL1        0.1188
     24 H          63.4018   84.1076    9.2096 H       1  UNL1        0.1188
     25 C          62.1649   85.5282    8.4137 C.3     1  UNL1        0.1195
     26 C          60.7963   85.8901    7.9180 C.1     1  UNL1        0.0745
     27 N          59.4277   86.2521    7.4222 N.1     1  UNL1       -0.1958
     28 C          62.9799   84.6396   15.0462 C.ar    1  UNL1        0.0129
     29 C          61.6340   83.9843   15.1433 C.ar    1  UNL1        0.0040
     30 C          61.4667   82.5508   14.7346 C.ar    1  UNL1        0.0377
     31 C          62.6452   81.7726   14.2288 C.ar    1  UNL1        0.1495
     32 C          63.9909   82.4280   14.1317 C.ar    1  UNL1        0.0490
     33 C          64.1582   83.8615   14.5404 C.ar    1  UNL1        0.0608
     34 CL         65.5040   84.5169   14.4434 Cl      1  UNL1       -0.0821
     35 O          62.4778   80.3391   13.8201 O.3     1  UNL1       -0.4223
     36 C          62.6170   79.9492   12.3783 C.ar    1  UNL1        0.3246
     37 N          62.5213   78.5065   11.9789 N.ar    1  UNL1       -0.1924
     38 C          62.6604   78.1166   10.5371 C.ar    1  UNL1        0.1053
     39 C          62.8952   79.1693    9.4948 C.ar    1  UNL1        0.0416
     40 C          62.9909   80.6121    9.8942 C.ar    1  UNL1        0.1053
     41 N          62.8517   81.0020   11.3359 N.ar    1  UNL1       -0.1924
@<TRIPOS>BOND
     1     1     2    1
     2     2     3   ar
     3     3     4   ar
     4     4     5   ar
     5     5     6   ar
     6     6     7   ar
     7     7     8   ar
     8     8     9   ar
     9     9    10    1
    10     9    11   ar
    11    11    28    1
    12    28    29   ar
    13    29    30   ar
    14    30    31   ar
    15    31    35    1
    16    35    36    1
    17    36    37   ar
    18    37    38   ar
    19    38    39   ar
    20    39    40   ar
    21    40    41   ar
    22    31    32   ar
    23    32    33   ar
    24    33    34    1
    25    11    12   ar
    26    12    13   ar
    27    13    14   ar
    28    14    15   ar
    29    16    15    1
    30    16    17    1
    31    17    18    1
    32    18    19    1
    33    19    20    1
    34    19    25    1
    35    25    26    1
    36    26    27    3
    37    19    21    1
    38    21    22    1
    39    15     2   ar
    40    22    16    1
    41    14     4   ar
    42    13     7   ar
    43    33    28   ar
    44    41    36   ar
    45    20    23    1
    46    20    24    1
@<TRIPOS>MOLECULE
*****
 41 46 0 0 0
SMALL
GASTEIGER

@<TRIPOS>ATOM
      1 C          61.6611   84.3585    7.9088 C.3     1  UNL1        0.0718
      2 C          62.0951   83.9307    9.2794 C.ar    1  UNL1        0.1207
      3 N          62.2385   82.5161    9.7574 N.ar    1  UNL1       -0.2294
      4 C          62.6940   82.5534   11.1861 C.ar    1  UNL1        0.1174
      5 C          63.0008   81.4641   12.1705 C.ar    1  UNL1        0.1193
      6 N          63.4457   81.8124   13.5600 N.ar    1  UNL1       -0.2421
      7 C          63.5837   83.2501   13.9650 C.ar    1  UNL1        0.0850
      8 C          64.0287   83.5984   15.3546 C.ar    1  UNL1        0.0488
      9 C          64.1667   85.0360   15.7597 C.ar    1  UNL1        0.1416
     10 F          64.6116   85.3844   17.1491 F       1  UNL1       -0.2041
     11 C          63.8599   86.1254   14.7751 C.ar    1  UNL1        0.0284
     12 C          63.4150   85.7771   13.3856 C.ar    1  UNL1        0.0052
     13 C          63.2769   84.3394   12.9806 C.ar    1  UNL1        0.0351
     14 C          62.8321   83.9911   11.5911 C.ar    1  UNL1        0.0815
     15 N          62.4620   84.8422   10.4127 N.ar    1  UNL1       -0.3167
     16 C          62.4592   86.3418   10.3744 C.3     1  UNL1        0.0867
     17 C          62.1381   87.0588    9.0968 C.3     1  UNL1        0.0239
     18 C          62.1353   88.5583    9.0585 C.3     1  UNL1        0.0172
     19 C          62.4536   89.3408   10.2979 C.3     1  UNL1        0.0533
     20 N          62.2142   90.4653    9.3344 N.3     1  UNL1       -0.3223
     21 C          62.7748   88.6238   11.5757 C.3     1  UNL1        0.0172
     22 C          62.7776   87.1243   11.6140 C.3     1  UNL1        0.0239
     23 H          61.9797   90.0836    8.4180 H       1  UNL1        0.1188
     24 H          63.0572   91.0346    9.2601 H       1  UNL1        0.1188
     25 C          62.6889   90.5138   11.2028 C.3     1  UNL1        0.1195
     26 C          63.9060   91.3708   11.0187 C.1     1  UNL1        0.0745
     27 N          65.1231   92.2279   10.8344 N.1     1  UNL1       -0.1958
     28 C          63.9980   87.5631   15.1802 C.ar    1  UNL1        0.0129
     29 C          64.8352   88.4970   14.3574 C.ar    1  UNL1        0.0040
     30 C          64.9733   89.9346   14.7624 C.ar    1  UNL1        0.0377
     31 C          64.2741   90.4384   15.9903 C.ar    1  UNL1        0.1495
     32 C          63.4369   89.5045   16.8130 C.ar    1  UNL1        0.0490
     33 C          63.2989   88.0668   16.4079 C.ar    1  UNL1        0.0608
     34 CL         62.4617   87.1329   17.2306 Cl      1  UNL1       -0.0821
     35 O          64.4122   91.8761   16.3953 O.3     1  UNL1       -0.4223
     36 C          65.6164   92.6628   15.9697 C.ar    1  UNL1        0.3246
     37 N          66.8285   92.7148   16.8518 N.ar    1  UNL1       -0.1924
     38 C          68.0326   93.5016   16.4262 C.ar    1  UNL1        0.1053
     39 C          68.0246   94.2363   15.1185 C.ar    1  UNL1        0.0416
     40 C          66.8125   94.1843   14.2364 C.ar    1  UNL1        0.1053
     41 N          65.6084   93.3976   14.6620 N.ar    1  UNL1       -0.1924
@<TRIPOS>BOND
     1     1     2    1
     2     2     3   ar
     3     3     4   ar
     4     4     5   ar
     5     5     6   ar
     6     6     7   ar
     7     7     8   ar
     8     8     9   ar
     9     9    10    1
    10     9    11   ar
    11    11    28    1
    12    28    29   ar
    13    29    30   ar
    14    30    31   ar
    15    31    35    1
    16    35    36    1
    17    36    37   ar
    18    37    38   ar
    19    38    39   ar
    20    39    40   ar
    21    40    41   ar
    22    31    32   ar
    23    32    33   ar
    24    33    34    1
    25    11    12   ar
    26    12    13   ar
    27    13    14   ar
    28    14    15   ar
    29    16    15    1
    30    16    17    1
    31    17    18    1
    32    18    19    1
    33    19    20    1
    34    19    25    1
    35    25    26    1
    36    26    27    3
    37    19    21    1
    38    21    22    1
    39    15     2   ar
    40    22    16    1
    41    14     4   ar
    42    13     7   ar
    43    33    28   ar
    44    41    36   ar
    45    20    23    1
    46    20    24    1
