@<TRIPOS>MOLECULE
*****
 33 37 0 0 0
SMALL
GASTEIGER

@<TRIPOS>ATOM
      1 C          62.4047   85.9529   10.8454 C.ar    1  UNL1        0.0846
      2 C          62.1024   86.5962    9.5245 C.ar    1  UNL1        0.0370
      3 C          61.9327   88.0687    9.7541 C.ar    1  UNL1        0.0967
      4 N          62.1300   88.3355   11.2169 N.ar    1  UNL1       -0.2452
      5 N          62.4218   87.0278   11.8914 N.ar    1  UNL1       -0.1730
      6 C          62.6473   84.4912   11.0793 C.3     1  UNL1        0.0757
      7 N          64.5328   85.4575   15.8239 N.pl3   1  UNL1       -0.3441
      8 C          63.9945   84.4896   14.8122 C.ar    1  UNL1        0.1035
      9 C          63.5900   84.9743   13.4517 C.ar    1  UNL1        0.0297
     10 C          63.0517   84.0064   12.4400 C.ar    1  UNL1        0.0090
     11 C          62.9179   82.5538   12.7890 C.ar    1  UNL1        0.1366
     12 N          62.4239   81.3745   12.0047 N.ar    1  UNL1       -0.1258
     13 N          62.5230   80.1609   12.8807 N.ar    1  UNL1       -0.0406
     14 N          63.0783   80.5901   14.2064 N.ar    1  UNL1       -0.1095
     15 C          63.3224   82.0690   14.1497 C.ar    1  UNL1        0.1838
     16 N          63.8607   83.0370   15.1613 N.ar    1  UNL1       -0.3249
     17 H          64.6206   86.4110   15.5949 H       1  UNL1        0.1437
     18 H          64.7982   85.1394   16.7170 H       1  UNL1        0.1437
     19 H          64.1261   82.7188   16.0544 H       1  UNL1        0.1686
     20 C          62.0498   89.6749   11.8876 C.3     1  UNL1        0.1539
     21 C          63.2492   90.2326   12.5949 C.ar    1  UNL1        0.0051
     22 C          63.8219   89.5142   13.7807 C.ar    1  UNL1       -0.0021
     23 C          65.0214   90.0719   14.4880 C.ar    1  UNL1        0.0029
     24 C          65.6482   91.3479   14.0095 C.ar    1  UNL1        0.0375
     25 C          65.0755   92.0662   12.8237 C.ar    1  UNL1        0.1450
     26 C          63.8761   91.5086   12.1165 C.ar    1  UNL1        0.0352
     27 O          65.7023   93.3423   12.3453 O.3     1  UNL1       -0.4535
     28 C          66.5726   93.3384   11.1237 C.ar    1  UNL1        0.1453
     29 C          66.5515   94.5073   10.1840 C.ar    1  UNL1        0.0375
     30 C          67.4219   94.5035    8.9623 C.ar    1  UNL1        0.0031
     31 C          68.3134   93.3306    8.6804 C.ar    1  UNL1        0.0002
     32 C          68.3347   92.1616    9.6201 C.ar    1  UNL1        0.0031
     33 C          67.4643   92.1655   10.8417 C.ar    1  UNL1        0.0375
@<TRIPOS>BOND
     1     7     8    1
     2     8     9   ar
     3     9    10   ar
     4    10     6    1
     5     6     1    1
     6     1     2   ar
     7     2     3   ar
     8     3     4   ar
     9     4    20    1
    10    20    21    1
    11    21    22   ar
    12    22    23   ar
    13    23    24   ar
    14    24    25   ar
    15    25    27    1
    16    27    28    1
    17    28    29   ar
    18    29    30   ar
    19    30    31   ar
    20    31    32   ar
    21    32    33   ar
    22    25    26   ar
    23     4     5   ar
    24    10    11   ar
    25    11    12   ar
    26    12    13   ar
    27    13    14   ar
    28    14    15   ar
    29    15    16   ar
    30    16     8   ar
    31     5     1   ar
    32    15    11    1
    33    26    21   ar
    34    33    28   ar
    35     7    17    1
    36     7    18    1
    37    16    19    1
@<TRIPOS>MOLECULE
*****
 33 37 0 0 0
SMALL
GASTEIGER

@<TRIPOS>ATOM
      1 C          62.1370   90.1959   10.6429 C.ar    1  UNL1        0.0846
      2 C          60.6570   90.3825   10.7996 C.ar    1  UNL1        0.0370
      3 C          59.9853   89.0947   10.4249 C.ar    1  UNL1        0.0967
      4 N          61.0501   88.1123   10.0367 N.ar    1  UNL1       -0.2452
      5 N          62.3801   88.7929   10.1715 N.ar    1  UNL1       -0.1730
      6 C          63.1894   91.2307   10.9107 C.3     1  UNL1        0.0757
      7 N          63.3496   89.9195   15.9363 N.pl3   1  UNL1       -0.3441
      8 C          63.9569   90.6183   14.7560 C.ar    1  UNL1        0.1035
      9 C          63.2695   90.5751   13.4235 C.ar    1  UNL1        0.0297
     10 C          63.8768   91.2739   12.2433 C.ar    1  UNL1        0.0090
     11 C          65.1715   92.0159   12.3956 C.ar    1  UNL1        0.1366
     12 N          66.0035   92.7937   11.4194 N.ar    1  UNL1       -0.1258
     13 N          67.2050   93.3175   12.1486 N.ar    1  UNL1       -0.0406
     14 N          67.1157   92.8635   13.5755 N.ar    1  UNL1       -0.1095
     15 C          65.8589   92.0591   13.7281 C.ar    1  UNL1        0.1838
     16 N          65.2516   91.3603   14.9083 N.ar    1  UNL1       -0.3249
     17 H          62.4998   89.4325   15.8363 H       1  UNL1        0.1437
     18 H          63.8008   89.9479   16.8108 H       1  UNL1        0.1437
     19 H          65.7028   91.3886   15.7829 H       1  UNL1        0.1686
     20 C          60.8248   86.6975    9.5918 C.3     1  UNL1        0.1539
     21 C          61.8485   85.6440    9.8948 C.ar    1  UNL1        0.0051
     22 C          62.7576   85.1475    8.8097 C.ar    1  UNL1       -0.0021
     23 C          63.7814   84.0939    9.1127 C.ar    1  UNL1        0.0029
     24 C          63.8962   83.5367   10.5006 C.ar    1  UNL1        0.0375
     25 C          62.9871   84.0332   11.5856 C.ar    1  UNL1        0.1450
     26 C          61.9634   85.0867   11.2827 C.ar    1  UNL1        0.0352
     27 O          63.1019   83.4759   12.9736 O.3     1  UNL1       -0.4535
     28 C          63.2099   84.4033   14.1475 C.ar    1  UNL1        0.1453
     29 C          62.3115   84.2186   15.3343 C.ar    1  UNL1        0.0375
     30 C          62.4194   85.1460   16.5084 C.ar    1  UNL1        0.0031
     31 C          63.4259   86.2581   16.4955 C.ar    1  UNL1        0.0002
     32 C          64.3244   86.4429   15.3087 C.ar    1  UNL1        0.0031
     33 C          64.2164   85.5155   14.1347 C.ar    1  UNL1        0.0375
@<TRIPOS>BOND
     1     7     8    1
     2     8     9   ar
     3     9    10   ar
     4    10     6    1
     5     6     1    1
     6     1     2   ar
     7     2     3   ar
     8     3     4   ar
     9     4    20    1
    10    20    21    1
    11    21    22   ar
    12    22    23   ar
    13    23    24   ar
    14    24    25   ar
    15    25    27    1
    16    27    28    1
    17    28    29   ar
    18    29    30   ar
    19    30    31   ar
    20    31    32   ar
    21    32    33   ar
    22    25    26   ar
    23     4     5   ar
    24    10    11   ar
    25    11    12   ar
    26    12    13   ar
    27    13    14   ar
    28    14    15   ar
    29    15    16   ar
    30    16     8   ar
    31     5     1   ar
    32    15    11    1
    33    26    21   ar
    34    33    28   ar
    35     7    17    1
    36     7    18    1
    37    16    19    1
@<TRIPOS>MOLECULE
*****
 33 37 0 0 0
SMALL
GASTEIGER

@<TRIPOS>ATOM
      1 C          62.3632   85.8171   10.9827 C.ar    1  UNL1        0.0846
      2 C          61.1585   86.1041   10.1363 C.ar    1  UNL1        0.0370
      3 C          60.8354   87.5628   10.2694 C.ar    1  UNL1        0.0967
      4 N          61.8404   88.1774   11.1980 N.ar    1  UNL1       -0.2452
      5 N          62.7846   87.0985   11.6389 N.ar    1  UNL1       -0.1730
      6 C          63.0295   84.4831   11.1446 C.3     1  UNL1        0.0757
      7 N          61.8749   79.9670   13.4408 N.pl3   1  UNL1       -0.3441
      8 C          62.2288   81.4214   13.5394 C.ar    1  UNL1        0.1035
      9 C          62.4522   82.2250   12.2928 C.ar    1  UNL1        0.0297
     10 C          62.8060   83.6794   12.3913 C.ar    1  UNL1        0.0090
     11 C          62.9364   84.3300   13.7365 C.ar    1  UNL1        0.1366
     12 N          63.2713   85.7342   14.1440 N.ar    1  UNL1       -0.1258
     13 N          63.2548   85.7984   15.6426 N.ar    1  UNL1       -0.0406
     14 N          62.9097   84.4338   16.1612 N.ar    1  UNL1       -0.1095
     15 C          62.7129   83.5263   14.9832 C.ar    1  UNL1        0.1838
     16 N          62.3591   82.0720   14.8846 N.ar    1  UNL1       -0.3249
     17 H          61.7894   79.5399   12.5579 H       1  UNL1        0.1437
     18 H          61.7283   79.4395   14.2591 H       1  UNL1        0.1437
     19 H          62.2125   81.5445   15.7028 H       1  UNL1        0.1686
     20 C          61.8921   89.6180   11.6130 C.3     1  UNL1        0.1539
     21 C          63.0666   90.1327   12.3910 C.ar    1  UNL1        0.0051
     22 C          63.5706   89.3703   13.5806 C.ar    1  UNL1       -0.0021
     23 C          64.7452   89.8851   14.3586 C.ar    1  UNL1        0.0029
     24 C          65.4159   91.1621   13.9471 C.ar    1  UNL1        0.0375
     25 C          64.9120   91.9244   12.7576 C.ar    1  UNL1        0.1450
     26 C          63.7374   91.4097   11.9796 C.ar    1  UNL1        0.0352
     27 O          65.5828   93.2015   12.3462 O.3     1  UNL1       -0.4535
     28 C          66.4995   93.2185   11.1591 C.ar    1  UNL1        0.1453
     29 C          67.4680   92.0936   10.9433 C.ar    1  UNL1        0.0375
     30 C          68.3848   92.1105    9.7562 C.ar    1  UNL1        0.0031
     31 C          68.3331   93.2525    8.7849 C.ar    1  UNL1        0.0002
     32 C          67.3646   94.3775    9.0007 C.ar    1  UNL1        0.0031
     33 C          66.4478   94.3604   10.1878 C.ar    1  UNL1        0.0375
@<TRIPOS>BOND
     1     7     8    1
     2     8     9   ar
     3     9    10   ar
     4    10     6    1
     5     6     1    1
     6     1     2   ar
     7     2     3   ar
     8     3     4   ar
     9     4    20    1
    10    20    21    1
    11    21    22   ar
    12    22    23   ar
    13    23    24   ar
    14    24    25   ar
    15    25    27    1
    16    27    28    1
    17    28    29   ar
    18    29    30   ar
    19    30    31   ar
    20    31    32   ar
    21    32    33   ar
    22    25    26   ar
    23     4     5   ar
    24    10    11   ar
    25    11    12   ar
    26    12    13   ar
    27    13    14   ar
    28    14    15   ar
    29    15    16   ar
    30    16     8   ar
    31     5     1   ar
    32    15    11    1
    33    26    21   ar
    34    33    28   ar
    35     7    17    1
    36     7    18    1
    37    16    19    1
@<TRIPOS>MOLECULE
*****
 33 37 0 0 0
SMALL
GASTEIGER

@<TRIPOS>ATOM
      1 C          62.9059   90.0915   11.8523 C.ar    1  UNL1        0.0846
      2 C          62.1480   90.8918   10.8349 C.ar    1  UNL1        0.0370
      3 C          61.4949   89.9331    9.8840 C.ar    1  UNL1        0.0967
      4 N          61.8491   88.5403   10.3136 N.ar    1  UNL1       -0.2452
      5 N          62.7212   88.6383   11.5302 N.ar    1  UNL1       -0.1730
      6 C          63.7077   90.6470   12.9918 C.3     1  UNL1        0.0757
      7 N          66.2342   93.7671    9.6930 N.pl3   1  UNL1       -0.3441
      8 C          66.0059   93.2623   11.0870 C.ar    1  UNL1        0.1035
      9 C          64.9710   92.2071   11.3424 C.ar    1  UNL1        0.0297
     10 C          64.7427   91.7022   12.7364 C.ar    1  UNL1        0.0090
     11 C          65.5495   92.2527   13.8749 C.ar    1  UNL1        0.1366
     12 N          65.5474   91.9516   15.3443 N.ar    1  UNL1       -0.1258
     13 N          66.5811   92.8208   15.9970 N.ar    1  UNL1       -0.0406
     14 N          67.2221   93.6590   14.9310 N.ar    1  UNL1       -0.1095
     15 C          66.5845   93.3079   13.6194 C.ar    1  UNL1        0.1838
     16 N          66.8127   93.8127   12.2254 N.ar    1  UNL1       -0.3249
     17 H          65.7047   93.4059    8.9458 H       1  UNL1        0.1437
     18 H          66.9135   94.4597    9.5254 H       1  UNL1        0.1437
     19 H          67.4920   94.5053   12.0577 H       1  UNL1        0.1686
     20 C          61.4087   87.2722    9.6443 C.3     1  UNL1        0.1539
     21 C          62.1714   86.0006    9.8708 C.ar    1  UNL1        0.0051
     22 C          62.9285   85.3687    8.7404 C.ar    1  UNL1       -0.0021
     23 C          63.6912   84.0971    8.9669 C.ar    1  UNL1        0.0029
     24 C          63.6968   83.4574   10.3237 C.ar    1  UNL1        0.0375
     25 C          62.9397   84.0893   11.4539 C.ar    1  UNL1        0.1450
     26 C          62.1771   85.3608   11.2275 C.ar    1  UNL1        0.0352
     27 O          62.9454   83.4495   12.8107 O.3     1  UNL1       -0.4535
     28 C          63.1463   84.2911   14.0359 C.ar    1  UNL1        0.1453
     29 C          62.2094   84.1573   15.1996 C.ar    1  UNL1        0.0375
     30 C          62.4102   84.9989   16.4250 C.ar    1  UNL1        0.0031
     31 C          63.5481   85.9744   16.4865 C.ar    1  UNL1        0.0002
     32 C          64.4851   86.1083   15.3228 C.ar    1  UNL1        0.0031
     33 C          64.2842   85.2666   14.0975 C.ar    1  UNL1        0.0375
@<TRIPOS>BOND
     1     7     8    1
     2     8     9   ar
     3     9    10   ar
     4    10     6    1
     5     6     1    1
     6     1     2   ar
     7     2     3   ar
     8     3     4   ar
     9     4    20    1
    10    20    21    1
    11    21    22   ar
    12    22    23   ar
    13    23    24   ar
    14    24    25   ar
    15    25    27    1
    16    27    28    1
    17    28    29   ar
    18    29    30   ar
    19    30    31   ar
    20    31    32   ar
    21    32    33   ar
    22    25    26   ar
    23     4     5   ar
    24    10    11   ar
    25    11    12   ar
    26    12    13   ar
    27    13    14   ar
    28    14    15   ar
    29    15    16   ar
    30    16     8   ar
    31     5     1   ar
    32    15    11    1
    33    26    21   ar
    34    33    28   ar
    35     7    17    1
    36     7    18    1
    37    16    19    1
@<TRIPOS>MOLECULE
*****
 33 37 0 0 0
SMALL
GASTEIGER

@<TRIPOS>ATOM
      1 C          62.3885   90.4469   10.7552 C.ar    1  UNL1        0.0846
      2 C          60.9441   90.7747   10.9927 C.ar    1  UNL1        0.0370
      3 C          60.1378   89.5395   10.7208 C.ar    1  UNL1        0.0967
      4 N          61.0837   88.4483   10.3151 N.ar    1  UNL1       -0.2452
      5 N          62.4747   89.0092   10.3364 N.ar    1  UNL1       -0.1730
      6 C          63.5437   91.3911   10.9093 C.3     1  UNL1        0.0757
      7 N          67.6117   93.0321   13.6950 N.pl3   1  UNL1       -0.3441
      8 C          66.3060   92.2983   13.6106 C.ar    1  UNL1        0.1035
      9 C          65.5777   92.2116   12.3022 C.ar    1  UNL1        0.0297
     10 C          64.2721   91.4778   12.2178 C.ar    1  UNL1        0.0090
     11 C          63.6949   90.8309   13.4418 C.ar    1  UNL1        0.1366
     12 N          62.4360   90.0459   13.6633 N.ar    1  UNL1       -0.1258
     13 N          62.3864   89.6475   15.1085 N.ar    1  UNL1       -0.0406
     14 N          63.6146   90.1863   15.7803 N.ar    1  UNL1       -0.1095
     15 C          64.4233   90.9176   14.7502 C.ar    1  UNL1        0.1838
     16 N          65.7289   91.6513   14.8346 N.ar    1  UNL1       -0.3249
     17 H          67.9905   93.4567   12.8916 H       1  UNL1        0.1437
     18 H          68.0897   93.0890   14.5538 H       1  UNL1        0.1437
     19 H          66.2070   91.7083   15.6933 H       1  UNL1        0.1686
     20 C          60.7051   87.0430    9.9519 C.3     1  UNL1        0.1539
     21 C          61.7285   85.9486   10.0221 C.ar    1  UNL1        0.0051
     22 C          62.4537   85.5192    8.7812 C.ar    1  UNL1       -0.0021
     23 C          63.4771   84.4248    8.8514 C.ar    1  UNL1        0.0029
     24 C          63.7753   83.7598   10.1625 C.ar    1  UNL1        0.0375
     25 C          63.0501   84.1893   11.4033 C.ar    1  UNL1        0.1450
     26 C          62.0268   85.2836   11.3331 C.ar    1  UNL1        0.0352
     27 O          63.3484   83.5242   12.7144 O.3     1  UNL1       -0.4535
     28 C          63.3837   84.3351   13.9758 C.ar    1  UNL1        0.1453
     29 C          64.4726   85.3446   14.1882 C.ar    1  UNL1        0.0375
     30 C          64.5080   86.1556   15.4496 C.ar    1  UNL1        0.0031
     31 C          63.4544   85.9569   16.4986 C.ar    1  UNL1        0.0002
     32 C          62.3654   84.9474   16.2863 C.ar    1  UNL1        0.0031
     33 C          62.3301   84.1365   15.0249 C.ar    1  UNL1        0.0375
@<TRIPOS>BOND
     1     7     8    1
     2     8     9   ar
     3     9    10   ar
     4    10     6    1
     5     6     1    1
     6     1     2   ar
     7     2     3   ar
     8     3     4   ar
     9     4    20    1
    10    20    21    1
    11    21    22   ar
    12    22    23   ar
    13    23    24   ar
    14    24    25   ar
    15    25    27    1
    16    27    28    1
    17    28    29   ar
    18    29    30   ar
    19    30    31   ar
    20    31    32   ar
    21    32    33   ar
    22    25    26   ar
    23     4     5   ar
    24    10    11   ar
    25    11    12   ar
    26    12    13   ar
    27    13    14   ar
    28    14    15   ar
    29    15    16   ar
    30    16     8   ar
    31     5     1   ar
    32    15    11    1
    33    26    21   ar
    34    33    28   ar
    35     7    17    1
    36     7    18    1
    37    16    19    1
@<TRIPOS>MOLECULE
*****
 33 37 0 0 0
SMALL
GASTEIGER

@<TRIPOS>ATOM
      1 C          62.2954   85.7011   10.7269 C.ar    1  UNL1        0.0846
      2 C          61.2507   85.8814    9.6658 C.ar    1  UNL1        0.0370
      3 C          60.7332   87.2862    9.7588 C.ar    1  UNL1        0.0967
      4 N          61.4580   87.9742   10.8774 N.ar    1  UNL1       -0.2452
      5 N          62.4235   86.9945   11.4758 N.ar    1  UNL1       -0.1730
      6 C          63.0751   84.4476   10.9927 C.3     1  UNL1        0.0757
      7 N          64.2733   85.4076   15.9569 N.pl3   1  UNL1       -0.3441
      8 C          63.8614   84.4451   14.8826 C.ar    1  UNL1        0.1035
      9 C          63.6742   84.9275   13.4748 C.ar    1  UNL1        0.0297
     10 C          63.2623   83.9650   12.4006 C.ar    1  UNL1        0.0090
     11 C          63.0377   82.5200   12.7343 C.ar    1  UNL1        0.1366
     12 N          62.6303   81.3471   11.8926 N.ar    1  UNL1       -0.1258
     13 N          62.5658   80.1397   12.7803 N.ar    1  UNL1       -0.0406
     14 N          62.9333   80.5664   14.1706 N.ar    1  UNL1       -0.1095
     15 C          63.2249   82.0375   14.1422 C.ar    1  UNL1        0.1838
     16 N          63.6368   83.0000   15.2163 N.ar    1  UNL1       -0.3249
     17 H          64.4207   86.3560   15.7379 H       1  UNL1        0.1437
     18 H          64.3961   85.0909   16.8809 H       1  UNL1        0.1437
     19 H          63.7597   82.6833   16.1404 H       1  UNL1        0.1686
     20 C          61.2533   89.3927   11.3200 C.3     1  UNL1        0.1539
     21 C          62.4377   90.2767   11.5763 C.ar    1  UNL1        0.0051
     22 C          63.0793   91.0188   10.4415 C.ar    1  UNL1       -0.0021
     23 C          64.2637   91.9028   10.6978 C.ar    1  UNL1        0.0029
     24 C          64.8065   92.0448   12.0889 C.ar    1  UNL1        0.0375
     25 C          64.1649   91.3028   13.2237 C.ar    1  UNL1        0.1450
     26 C          62.9805   90.4188   12.9674 C.ar    1  UNL1        0.0352
     27 O          64.7077   91.4449   14.6149 O.3     1  UNL1       -0.4535
     28 C          66.1162   91.9155   14.8259 C.ar    1  UNL1        0.1453
     29 C          67.1977   91.4956   13.8751 C.ar    1  UNL1        0.0375
     30 C          68.6063   91.9662   14.0861 C.ar    1  UNL1        0.0031
     31 C          68.9333   92.8568   15.2480 C.ar    1  UNL1        0.0002
     32 C          67.8518   93.2767   16.1989 C.ar    1  UNL1        0.0031
     33 C          66.4433   92.8061   15.9878 C.ar    1  UNL1        0.0375
@<TRIPOS>BOND
     1     7     8    1
     2     8     9   ar
     3     9    10   ar
     4    10     6    1
     5     6     1    1
     6     1     2   ar
     7     2     3   ar
     8     3     4   ar
     9     4    20    1
    10    20    21    1
    11    21    22   ar
    12    22    23   ar
    13    23    24   ar
    14    24    25   ar
    15    25    27    1
    16    27    28    1
    17    28    29   ar
    18    29    30   ar
    19    30    31   ar
    20    31    32   ar
    21    32    33   ar
    22    25    26   ar
    23     4     5   ar
    24    10    11   ar
    25    11    12   ar
    26    12    13   ar
    27    13    14   ar
    28    14    15   ar
    29    15    16   ar
    30    16     8   ar
    31     5     1   ar
    32    15    11    1
    33    26    21   ar
    34    33    28   ar
    35     7    17    1
    36     7    18    1
    37    16    19    1
@<TRIPOS>MOLECULE
*****
 33 37 0 0 0
SMALL
GASTEIGER

@<TRIPOS>ATOM
      1 C          62.3631   85.6656   10.7725 C.ar    1  UNL1        0.0846
      2 C          61.5250   85.8394    9.5407 C.ar    1  UNL1        0.0370
      3 C          61.0214   87.2522    9.5183 C.ar    1  UNL1        0.0967
      4 N          61.5482   87.9514   10.7363 N.ar    1  UNL1       -0.2452
      5 N          62.3774   86.9708   11.5114 N.ar    1  UNL1       -0.1730
      6 C          63.0637   84.4073   11.1919 C.3     1  UNL1        0.0757
      7 N          61.7978   80.6392   14.5384 N.pl3   1  UNL1       -0.3441
      8 C          62.3019   82.0272   14.2748 C.ar    1  UNL1        0.1035
      9 C          62.4308   82.5233   12.8652 C.ar    1  UNL1        0.0297
     10 C          62.9349   83.9113   12.6016 C.ar    1  UNL1        0.0090
     11 C          63.3101   84.8031   13.7478 C.ar    1  UNL1        0.1366
     12 N          63.8328   86.2083   13.7969 N.ar    1  UNL1       -0.1258
     13 N          64.0269   86.5806   15.2369 N.ar    1  UNL1       -0.0406
     14 N          63.6242   85.4055   16.0778 N.ar    1  UNL1       -0.1095
     15 C          63.1812   84.3070   15.1575 C.ar    1  UNL1        0.1838
     16 N          62.6771   82.9190   15.4210 N.ar    1  UNL1       -0.3249
     17 H          61.5515   80.0538   13.7861 H       1  UNL1        0.1437
     18 H          61.7132   80.3136   15.4636 H       1  UNL1        0.1437
     19 H          62.5925   82.5934   16.3463 H       1  UNL1        0.1686
     20 C          61.2911   89.3805   11.1130 C.3     1  UNL1        0.1539
     21 C          62.4413   90.2979   11.4044 C.ar    1  UNL1        0.0051
     22 C          63.0880   91.0671   10.2906 C.ar    1  UNL1       -0.0021
     23 C          64.2383   91.9846   10.5820 C.ar    1  UNL1        0.0029
     24 C          64.7420   92.1331   11.9871 C.ar    1  UNL1        0.0375
     25 C          64.0953   91.3640   13.1008 C.ar    1  UNL1        0.1450
     26 C          62.9451   90.4465   12.8094 C.ar    1  UNL1        0.0352
     27 O          64.5991   91.5125   14.5059 O.3     1  UNL1       -0.4535
     28 C          66.0192   91.9268   14.7537 C.ar    1  UNL1        0.1453
     29 C          67.0917   91.5517   13.7744 C.ar    1  UNL1        0.0375
     30 C          68.5119   91.9661   14.0221 C.ar    1  UNL1        0.0031
     31 C          68.8596   92.7555   15.2492 C.ar    1  UNL1        0.0002
     32 C          67.7871   93.1307   16.2286 C.ar    1  UNL1        0.0031
     33 C          66.3670   92.7163   15.9808 C.ar    1  UNL1        0.0375
@<TRIPOS>BOND
     1     7     8    1
     2     8     9   ar
     3     9    10   ar
     4    10     6    1
     5     6     1    1
     6     1     2   ar
     7     2     3   ar
     8     3     4   ar
     9     4    20    1
    10    20    21    1
    11    21    22   ar
    12    22    23   ar
    13    23    24   ar
    14    24    25   ar
    15    25    27    1
    16    27    28    1
    17    28    29   ar
    18    29    30   ar
    19    30    31   ar
    20    31    32   ar
    21    32    33   ar
    22    25    26   ar
    23     4     5   ar
    24    10    11   ar
    25    11    12   ar
    26    12    13   ar
    27    13    14   ar
    28    14    15   ar
    29    15    16   ar
    30    16     8   ar
    31     5     1   ar
    32    15    11    1
    33    26    21   ar
    34    33    28   ar
    35     7    17    1
    36     7    18    1
    37    16    19    1
@<TRIPOS>MOLECULE
*****
 33 37 0 0 0
SMALL
GASTEIGER

@<TRIPOS>ATOM
      1 C          62.6927   90.3787   11.6904 C.ar    1  UNL1        0.0846
      2 C          63.9210   91.2361   11.7688 C.ar    1  UNL1        0.0370
      3 C          64.4425   91.1714   13.1737 C.ar    1  UNL1        0.0967
      4 N          63.5366   90.2742   13.9637 N.ar    1  UNL1       -0.2452
      5 N          62.4551   89.7843   13.0469 N.ar    1  UNL1       -0.1730
      6 C          61.8499   90.1551   10.4699 C.3     1  UNL1        0.0757
      7 N          62.1773   85.0170   11.1726 N.pl3   1  UNL1       -0.3441
      8 C          61.6239   86.1932   10.4239 C.ar    1  UNL1        0.1035
      9 C          62.0136   87.5860   10.8212 C.ar    1  UNL1        0.0297
     10 C          61.4602   88.7622   10.0725 C.ar    1  UNL1        0.0090
     11 C          60.5170   88.5453    8.9265 C.ar    1  UNL1        0.1366
     12 N          59.8157   89.5025    8.0089 N.ar    1  UNL1       -0.1258
     13 N          58.9925   88.7011    7.0445 N.ar    1  UNL1       -0.0406
     14 N          59.1850   87.2486    7.3660 N.ar    1  UNL1       -0.1095
     15 C          60.1273   87.1524    8.5292 C.ar    1  UNL1        0.1838
     16 N          60.6807   85.9763    9.2779 N.ar    1  UNL1       -0.3249
     17 H          62.7963   85.1593   11.9248 H       1  UNL1        0.1437
     18 H          61.9215   84.1028   10.9118 H       1  UNL1        0.1437
     19 H          60.4249   85.0621    9.0171 H       1  UNL1        0.1686
     20 C          63.6858   89.9276   15.4155 C.3     1  UNL1        0.1539
     21 C          63.6236   88.4948   15.8548 C.ar    1  UNL1        0.0051
     22 C          62.9064   88.1288   17.1205 C.ar    1  UNL1       -0.0021
     23 C          62.8442   86.6960   17.5598 C.ar    1  UNL1        0.0029
     24 C          63.4991   85.6291   16.7335 C.ar    1  UNL1        0.0375
     25 C          64.2162   85.9951   15.4678 C.ar    1  UNL1        0.1450
     26 C          64.2784   87.4278   15.0285 C.ar    1  UNL1        0.0352
     27 O          64.8711   84.9281   14.6415 O.3     1  UNL1       -0.4535
     28 C          64.0618   83.7740   14.1288 C.ar    1  UNL1        0.1453
     29 C          62.8519   83.3116   14.8852 C.ar    1  UNL1        0.0375
     30 C          62.0425   82.1575   14.3726 C.ar    1  UNL1        0.0031
     31 C          62.4431   81.4656   13.1034 C.ar    1  UNL1        0.0002
     32 C          63.6531   81.9279   12.3468 C.ar    1  UNL1        0.0031
     33 C          64.4625   83.0820   12.8596 C.ar    1  UNL1        0.0375
@<TRIPOS>BOND
     1     7     8    1
     2     8     9   ar
     3     9    10   ar
     4    10     6    1
     5     6     1    1
     6     1     2   ar
     7     2     3   ar
     8     3     4   ar
     9     4    20    1
    10    20    21    1
    11    21    22   ar
    12    22    23   ar
    13    23    24   ar
    14    24    25   ar
    15    25    27    1
    16    27    28    1
    17    28    29   ar
    18    29    30   ar
    19    30    31   ar
    20    31    32   ar
    21    32    33   ar
    22    25    26   ar
    23     4     5   ar
    24    10    11   ar
    25    11    12   ar
    26    12    13   ar
    27    13    14   ar
    28    14    15   ar
    29    15    16   ar
    30    16     8   ar
    31     5     1   ar
    32    15    11    1
    33    26    21   ar
    34    33    28   ar
    35     7    17    1
    36     7    18    1
    37    16    19    1
@<TRIPOS>MOLECULE
*****
 33 37 0 0 0
SMALL
GASTEIGER

@<TRIPOS>ATOM
      1 C          62.9620   90.1800   12.3108 C.ar    1  UNL1        0.0846
      2 C          62.3416   90.9297   11.1693 C.ar    1  UNL1        0.0370
      3 C          61.5414   89.9562   10.3558 C.ar    1  UNL1        0.0967
      4 N          61.6671   88.6048   10.9945 N.ar    1  UNL1       -0.2452
      5 N          62.5451   88.7431   12.2028 N.ar    1  UNL1       -0.1730
      6 C          63.8443   90.7644   13.3738 C.3     1  UNL1        0.0757
      7 N          66.1577   93.7564    9.8105 N.pl3   1  UNL1       -0.3441
      8 C          66.0371   93.2823   11.2285 C.ar    1  UNL1        0.1035
      9 C          65.0011   92.2605   11.5922 C.ar    1  UNL1        0.0297
     10 C          64.8805   91.7863   13.0102 C.ar    1  UNL1        0.0090
     11 C          65.7961   92.3341   14.0645 C.ar    1  UNL1        0.1366
     12 N          65.9125   92.0587   15.5344 N.ar    1  UNL1       -0.1258
     13 N          67.0205   92.9104   16.0792 N.ar    1  UNL1       -0.0406
     14 N          67.5890   93.7121   14.9460 N.ar    1  UNL1       -0.1095
     15 C          66.8322   93.3559   13.7008 C.ar    1  UNL1        0.1838
     16 N          66.9528   93.8300   12.2828 N.ar    1  UNL1       -0.3249
     17 H          65.5568   93.3970    9.1185 H       1  UNL1        0.1437
     18 H          66.8378   94.4271    9.5719 H       1  UNL1        0.1437
     19 H          67.6328   94.5007   12.0442 H       1  UNL1        0.1686
     20 C          61.0273   87.3375   10.5100 C.3     1  UNL1        0.1539
     21 C          61.8795   86.2188    9.9887 C.ar    1  UNL1        0.0051
     22 C          62.0509   86.0328    8.5101 C.ar    1  UNL1       -0.0021
     23 C          62.9032   84.9139    7.9887 C.ar    1  UNL1        0.0029
     24 C          63.5841   83.9811    8.9459 C.ar    1  UNL1        0.0375
     25 C          63.4126   84.1671   10.4244 C.ar    1  UNL1        0.1450
     26 C          62.5604   85.2858   10.9457 C.ar    1  UNL1        0.0352
     27 O          64.0936   83.2341   11.3815 O.3     1  UNL1       -0.4535
     28 C          63.2788   82.4143   12.3375 C.ar    1  UNL1        0.1453
     29 C          63.0033   80.9700   12.0408 C.ar    1  UNL1        0.0375
     30 C          62.1885   80.1500   12.9967 C.ar    1  UNL1        0.0031
     31 C          61.6492   80.7744   14.2494 C.ar    1  UNL1        0.0002
     32 C          61.9247   82.2188   14.5462 C.ar    1  UNL1        0.0031
     33 C          62.7395   83.0387   13.5902 C.ar    1  UNL1        0.0375
@<TRIPOS>BOND
     1     7     8    1
     2     8     9   ar
     3     9    10   ar
     4    10     6    1
     5     6     1    1
     6     1     2   ar
     7     2     3   ar
     8     3     4   ar
     9     4    20    1
    10    20    21    1
    11    21    22   ar
    12    22    23   ar
    13    23    24   ar
    14    24    25   ar
    15    25    27    1
    16    27    28    1
    17    28    29   ar
    18    29    30   ar
    19    30    31   ar
    20    31    32   ar
    21    32    33   ar
    22    25    26   ar
    23     4     5   ar
    24    10    11   ar
    25    11    12   ar
    26    12    13   ar
    27    13    14   ar
    28    14    15   ar
    29    15    16   ar
    30    16     8   ar
    31     5     1   ar
    32    15    11    1
    33    26    21   ar
    34    33    28   ar
    35     7    17    1
    36     7    18    1
    37    16    19    1
