@<TRIPOS>MOLECULE
*****
 34 38 0 0 0
SMALL
GASTEIGER

@<TRIPOS>ATOM
      1 C          60.6403   88.8265    9.8164 C.3     1  UNL1        0.1455
      2 C          59.8896   89.6353    8.8004 C.3     1  UNL1        0.1634
      3 O          59.4173   88.9924    7.5302 O.3     1  UNL1       -0.3507
      4 C          59.6958   87.5405    7.2759 C.3     1  UNL1        0.1598
      5 C          60.4465   86.7317    8.2918 C.3     1  UNL1        0.1093
      6 N          60.9188   87.3747    9.5621 N.3     1  UNL1       -0.1499
      7 C          61.1125   89.4695   11.0866 C.3     1  UNL1        0.1550
      8 C          59.7998   89.6553   11.7882 C.3     1  UNL1        0.0453
      9 C          61.0719   90.0994   12.4474 C.3     1  UNL1        0.0453
     10 O          62.5893   89.5070   10.8263 O.3     1  UNL1       -0.4403
     11 C          66.9593   93.4866   14.3357 C.3     1  UNL1        0.1150
     12 N          66.0327   92.8150   13.3659 N.am    1  UNL1       -0.2746
     13 C          65.7701   93.4368   12.0263 C.3     1  UNL1        0.1151
     14 C          64.8435   92.7651   11.0565 C.3     1  UNL1        0.1187
     15 N          64.1797   91.4718   11.4264 N.am    1  UNL1       -0.2353
     16 C          63.2531   90.8003   10.4565 C.2     1  UNL1        0.4051
     17 O          62.9904   91.4219    9.1169 O.2     1  UNL1       -0.2262
     18 C          64.4423   90.8501   12.7659 C.3     1  UNL1        0.1820
     19 C          65.3689   91.5218   13.7357 C.2     1  UNL1        0.2461
     20 O          65.6315   90.9001   15.0753 O.2     1  UNL1       -0.2730
     21 S          61.6695   86.5659   10.5781 S.O2    1  UNL1        0.0635
     22 O          60.7978   86.4352   11.6006 O.2     1  UNL1       -0.1528
     23 O          62.8551   86.5138    9.6606 O.2     1  UNL1       -0.1528
     24 C          62.4203   85.7571   11.5941 C.ar    1  UNL1        0.1223
     25 C          63.0985   86.4405   12.7443 C.ar    1  UNL1        0.0208
     26 C          63.8494   85.6316   13.7602 C.ar    1  UNL1        0.0128
     27 C          63.9220   84.1394   13.6260 C.ar    1  UNL1        0.0578
     28 CL         64.6728   83.3307   14.6419 Cl      1  UNL1       -0.0822
     29 C          63.2438   83.4561   12.4757 C.ar    1  UNL1        0.0128
     30 C          62.4929   84.2649   11.4598 C.ar    1  UNL1        0.0208
     31 C          60.7251   85.2799    8.0376 C.3     1  UNL1        0.0203
     32 C          61.5296   84.8691    6.8400 C.3     1  UNL1        0.0015
     33 C          61.6192   84.1873    5.5070 C.3     1  UNL1        0.0000
     34 C          62.8334   84.8394    6.0990 C.3     1  UNL1        0.0000
@<TRIPOS>BOND
     1    11    12    1
     2    12    13    1
     3    13    14    1
     4    14    15    1
     5    15    16   am
     6    16    17    2
     7    16    10    1
     8    10     7    1
     9     1     7    1
    10     1     2    1
    11     2     3    1
    12     3     4    1
    13     4     5    1
    14     5    31    1
    15    31    32    1
    16    32    33    1
    17    33    34    1
    18     5     6    1
    19     6    21    1
    20    21    22    2
    21    21    23    2
    22    21    24    1
    23    24    25   ar
    24    25    26   ar
    25    26    27   ar
    26    27    28    1
    27    27    29   ar
    28    29    30   ar
    29     7     8    1
    30     8     9    1
    31    15    18    1
    32    18    19    1
    33    19    20    2
    34    19    12   am
    35     9     7    1
    36     6     1    1
    37    30    24   ar
    38    34    32    1
@<TRIPOS>MOLECULE
*****
 34 38 0 0 0
SMALL
GASTEIGER

@<TRIPOS>ATOM
      1 C          63.3936   88.1154   13.0931 C.3     1  UNL1        0.1455
      2 C          64.2161   87.6858   14.2715 C.3     1  UNL1        0.1634
      3 O          64.4493   86.2271   14.5316 O.3     1  UNL1       -0.3507
      4 C          63.8598   85.1979   13.6132 C.3     1  UNL1        0.1598
      5 C          63.0372   85.6275   12.4348 C.3     1  UNL1        0.1093
      6 N          62.8041   87.0863   12.1747 N.3     1  UNL1       -0.1499
      7 C          63.1604   89.5742   12.8330 C.3     1  UNL1        0.1550
      8 C          61.6652   89.6226   12.9421 C.3     1  UNL1        0.0453
      9 C          62.4362   90.8739   12.6422 C.3     1  UNL1        0.0453
     10 O          64.5747   90.0325   12.6335 O.3     1  UNL1       -0.4403
     11 C          66.8685   96.2823   10.9220 C.3     1  UNL1        0.1150
     12 N          66.4340   94.9967   11.5612 N.am    1  UNL1       -0.2746
     13 C          66.5554   94.8187   13.0456 C.3     1  UNL1        0.1151
     14 C          66.1209   93.5331   13.6848 C.3     1  UNL1        0.1187
     15 N          65.5650   92.4256   12.8395 N.am    1  UNL1       -0.2353
     16 C          65.1305   91.1401   13.4788 C.2     1  UNL1        0.4051
     17 O          65.2519   90.9620   14.9632 O.2     1  UNL1       -0.2262
     18 C          65.4437   92.6036   11.3551 C.3     1  UNL1        0.1820
     19 C          65.8782   93.8893   10.7159 C.2     1  UNL1        0.2461
     20 O          65.7568   94.0673    9.2315 O.2     1  UNL1       -0.2730
     21 S          61.9816   87.5160   10.9962 S.O2    1  UNL1        0.0635
     22 O          62.8945   87.9485   10.1008 O.2     1  UNL1       -0.1528
     23 O          60.7308   87.1279   11.7278 O.2     1  UNL1       -0.1528
     24 C          61.1589   87.9457    9.8178 C.ar    1  UNL1        0.1223
     25 C          60.4974   86.9168    8.9498 C.ar    1  UNL1        0.0208
     26 C          59.6747   87.3466    7.7713 C.ar    1  UNL1        0.0128
     27 C          59.5135   88.8053    7.4611 C.ar    1  UNL1        0.0578
     28 CL         58.6909   89.2350    6.2827 Cl      1  UNL1       -0.0822
     29 C          60.1751   89.8341    8.3292 C.ar    1  UNL1        0.0128
     30 C          60.9978   89.4044    9.5076 C.ar    1  UNL1        0.0208
     31 C          62.4478   84.5985   11.5163 C.3     1  UNL1        0.0203
     32 C          63.2161   83.3504   11.1968 C.3     1  UNL1        0.0015
     33 C          63.5034   81.9006   11.4524 C.3     1  UNL1        0.0000
     34 C          64.2595   82.6386   10.3877 C.3     1  UNL1        0.0000
@<TRIPOS>BOND
     1    11    12    1
     2    12    13    1
     3    13    14    1
     4    14    15    1
     5    15    16   am
     6    16    17    2
     7    16    10    1
     8    10     7    1
     9     1     7    1
    10     1     2    1
    11     2     3    1
    12     3     4    1
    13     4     5    1
    14     5    31    1
    15    31    32    1
    16    32    33    1
    17    33    34    1
    18     5     6    1
    19     6    21    1
    20    21    22    2
    21    21    23    2
    22    21    24    1
    23    24    25   ar
    24    25    26   ar
    25    26    27   ar
    26    27    28    1
    27    27    29   ar
    28    29    30   ar
    29     7     8    1
    30     8     9    1
    31    15    18    1
    32    18    19    1
    33    19    20    2
    34    19    12   am
    35     9     7    1
    36     6     1    1
    37    30    24   ar
    38    34    32    1
@<TRIPOS>MOLECULE
*****
 34 38 0 0 0
SMALL
GASTEIGER

@<TRIPOS>ATOM
      1 C          64.4033   90.2763   14.7241 C.3     1  UNL1        0.1455
      2 C          65.4385   90.9719   15.5574 C.3     1  UNL1        0.1634
      3 O          66.3037   92.0338   14.9462 O.3     1  UNL1       -0.3507
      4 C          66.1337   92.4002   13.5016 C.3     1  UNL1        0.1598
      5 C          65.0985   91.7047   12.6682 C.3     1  UNL1        0.1093
      6 N          64.2333   90.6427   13.2794 N.3     1  UNL1       -0.1499
      7 C          63.5381   89.2143   15.3353 C.3     1  UNL1        0.1550
      8 C          62.6627   90.0626   16.2094 C.3     1  UNL1        0.0453
      9 C          62.4732   88.5750   16.1764 C.3     1  UNL1        0.0453
     10 O          64.1130   87.9971   14.6735 O.3     1  UNL1       -0.4403
     11 C          62.6695   81.8648   11.9236 C.3     1  UNL1        0.1150
     12 N          62.9895   83.0609   12.7704 N.am    1  UNL1       -0.2746
     13 C          63.1460   82.9089   14.2544 C.3     1  UNL1        0.1151
     14 C          63.4660   84.1050   15.1012 C.3     1  UNL1        0.1187
     15 N          63.6295   85.4530   14.4639 N.am    1  UNL1       -0.2353
     16 C          63.9495   86.6491   15.3108 C.2     1  UNL1        0.4051
     17 O          64.1060   86.4971   16.7948 O.2     1  UNL1       -0.2262
     18 C          63.4730   85.6050   12.9799 C.3     1  UNL1        0.1820
     19 C          63.1530   84.4089   12.1331 C.2     1  UNL1        0.2461
     20 O          62.9965   84.5609   10.6491 O.2     1  UNL1       -0.2730
     21 S          63.1981   89.9470   12.4462 S.O2    1  UNL1        0.0635
     22 O          63.7875   88.7840   12.0966 O.2     1  UNL1       -0.1528
     23 O          62.2647   91.1055   12.6386 O.2     1  UNL1       -0.1528
     24 C          62.1627   89.2515   11.6129 C.ar    1  UNL1        0.1223
     25 C          62.5840   88.2829   10.5478 C.ar    1  UNL1        0.0208
     26 C          61.5486   87.5874    9.7146 C.ar    1  UNL1        0.0128
     27 C          60.0920   87.8604    9.9463 C.ar    1  UNL1        0.0578
     28 CL         59.0567   87.1649    9.1131 Cl      1  UNL1       -0.0822
     29 C          59.6708   88.8290   11.0114 C.ar    1  UNL1        0.0128
     30 C          60.7062   89.5246   11.8447 C.ar    1  UNL1        0.0208
     31 C          64.9284   92.0710   11.2237 C.3     1  UNL1        0.0203
     32 C          66.0122   92.8213   10.5076 C.3     1  UNL1        0.0015
     33 C          67.3614   92.8445    9.8527 C.3     1  UNL1        0.0000
     34 C          66.5400   94.0976    9.9224 C.3     1  UNL1        0.0000
@<TRIPOS>BOND
     1    11    12    1
     2    12    13    1
     3    13    14    1
     4    14    15    1
     5    15    16   am
     6    16    17    2
     7    16    10    1
     8    10     7    1
     9     1     7    1
    10     1     2    1
    11     2     3    1
    12     3     4    1
    13     4     5    1
    14     5    31    1
    15    31    32    1
    16    32    33    1
    17    33    34    1
    18     5     6    1
    19     6    21    1
    20    21    22    2
    21    21    23    2
    22    21    24    1
    23    24    25   ar
    24    25    26   ar
    25    26    27   ar
    26    27    28    1
    27    27    29   ar
    28    29    30   ar
    29     7     8    1
    30     8     9    1
    31    15    18    1
    32    18    19    1
    33    19    20    2
    34    19    12   am
    35     9     7    1
    36     6     1    1
    37    30    24   ar
    38    34    32    1
@<TRIPOS>MOLECULE
*****
 34 38 0 0 0
SMALL
GASTEIGER

@<TRIPOS>ATOM
      1 C          63.3302   88.1645   13.0312 C.3     1  UNL1        0.1455
      2 C          64.1673   87.7635   14.2095 C.3     1  UNL1        0.1634
      3 O          64.4227   86.3121   14.4889 O.3     1  UNL1       -0.3507
      4 C          63.8409   85.2616   13.5899 C.3     1  UNL1        0.1598
      5 C          63.0038   85.6626   12.4117 C.3     1  UNL1        0.1093
      6 N          62.7484   87.1140   12.1323 N.3     1  UNL1       -0.1499
      7 C          63.0748   89.6159   12.7518 C.3     1  UNL1        0.1550
      8 C          61.6440   89.7178   13.1904 C.3     1  UNL1        0.0453
      9 C          62.3534   90.9278   12.6584 C.3     1  UNL1        0.0453
     10 O          64.4169   90.0182   12.2162 O.3     1  UNL1       -0.4403
     11 C          68.4891   94.2972   15.7317 C.3     1  UNL1        0.1150
     12 N          67.5506   93.5900   14.7994 N.am    1  UNL1       -0.2746
     13 C          66.9306   94.3330   13.6533 C.3     1  UNL1        0.1151
     14 C          65.9921   93.6257   12.7210 C.3     1  UNL1        0.1187
     15 N          65.6738   92.1755   12.9348 N.am    1  UNL1       -0.2353
     16 C          64.7353   91.4684   12.0025 C.2     1  UNL1        0.4051
     17 O          64.1152   92.2113   10.8563 O.2     1  UNL1       -0.2262
     18 C          66.2938   91.4326   14.0809 C.3     1  UNL1        0.1820
     19 C          67.2323   92.1398   15.0132 C.2     1  UNL1        0.2461
     20 O          67.8523   91.3969   16.1592 O.2     1  UNL1       -0.2730
     21 S          61.9112   87.5151   10.9540 S.O2    1  UNL1        0.0635
     22 O          62.8108   87.9554   10.0488 O.2     1  UNL1       -0.1528
     23 O          60.6722   87.1109   11.6968 O.2     1  UNL1       -0.1528
     24 C          61.0739   87.9162    9.7758 C.ar    1  UNL1        0.1223
     25 C          60.9149   89.3665    9.4277 C.ar    1  UNL1        0.0208
     26 C          60.0776   89.7674    8.2494 C.ar    1  UNL1        0.0128
     27 C          59.3994   88.7181    7.4193 C.ar    1  UNL1        0.0578
     28 CL         58.5621   89.1191    6.2412 Cl      1  UNL1       -0.0822
     29 C          59.5585   87.2678    7.7676 C.ar    1  UNL1        0.0128
     30 C          60.3958   86.8668    8.9458 C.ar    1  UNL1        0.0208
     31 C          62.4219   84.6122   11.5127 C.3     1  UNL1        0.0203
     32 C          63.2756   83.4729   11.0400 C.3     1  UNL1        0.0015
     33 C          64.5433   82.9723   10.4137 C.3     1  UNL1        0.0000
     34 C          63.4865   82.0004   10.8476 C.3     1  UNL1        0.0000
@<TRIPOS>BOND
     1    11    12    1
     2    12    13    1
     3    13    14    1
     4    14    15    1
     5    15    16   am
     6    16    17    2
     7    16    10    1
     8    10     7    1
     9     1     7    1
    10     1     2    1
    11     2     3    1
    12     3     4    1
    13     4     5    1
    14     5    31    1
    15    31    32    1
    16    32    33    1
    17    33    34    1
    18     5     6    1
    19     6    21    1
    20    21    22    2
    21    21    23    2
    22    21    24    1
    23    24    25   ar
    24    25    26   ar
    25    26    27   ar
    26    27    28    1
    27    27    29   ar
    28    29    30   ar
    29     7     8    1
    30     8     9    1
    31    15    18    1
    32    18    19    1
    33    19    20    2
    34    19    12   am
    35     9     7    1
    36     6     1    1
    37    30    24   ar
    38    34    32    1
@<TRIPOS>MOLECULE
*****
 34 38 0 0 0
SMALL
GASTEIGER

@<TRIPOS>ATOM
      1 C          62.2987   86.3743   10.6566 C.3     1  UNL1        0.1455
      2 C          62.3412   86.1014    9.1823 C.3     1  UNL1        0.1634
      3 O          63.0858   84.9078    8.6617 O.3     1  UNL1       -0.3507
      4 C          63.7878   83.9872    9.6154 C.3     1  UNL1        0.1598
      5 C          63.7453   84.2601   11.0897 C.3     1  UNL1        0.1093
      6 N          63.0008   85.4536   11.6104 N.3     1  UNL1       -0.1499
      7 C          61.5542   87.5678   11.1773 C.3     1  UNL1        0.1550
      8 C          60.1485   87.1632   10.8452 C.3     1  UNL1        0.0453
      9 C          60.4112   88.4769   11.5199 C.3     1  UNL1        0.0453
     10 O          62.7012   88.3871   11.6902 O.3     1  UNL1       -0.4403
     11 C          66.5066   93.7169   13.7788 C.3     1  UNL1        0.1150
     12 N          65.6547   92.6995   13.0793 N.am    1  UNL1       -0.2746
     13 C          65.2008   92.9426   11.6705 C.3     1  UNL1        0.1151
     14 C          64.3489   91.9251   10.9710 C.3     1  UNL1        0.1187
     15 N          63.9510   90.6648   11.6804 N.am    1  UNL1       -0.2353
     16 C          63.0991   89.6474   10.9808 C.2     1  UNL1        0.4051
     17 O          62.6451   89.8904    9.5719 O.2     1  UNL1       -0.2262
     18 C          64.4050   90.4218   13.0892 C.3     1  UNL1        0.1820
     19 C          65.2569   91.4392   13.7887 C.2     1  UNL1        0.2461
     20 O          65.7108   91.1962   15.1975 O.2     1  UNL1       -0.2730
     21 S          62.9582   85.7266   13.0847 S.O2    1  UNL1        0.0635
     22 O          63.9814   86.5835   13.2881 O.2     1  UNL1       -0.1528
     23 O          61.7758   84.8134   13.2196 O.2     1  UNL1       -0.1528
     24 C          62.9155   85.9995   14.5591 C.ar    1  UNL1        0.1223
     25 C          62.3451   84.9756   15.4951 C.ar    1  UNL1        0.0208
     26 C          62.3024   85.2486   16.9695 C.ar    1  UNL1        0.0128
     27 C          62.8302   86.5454   17.5078 C.ar    1  UNL1        0.0578
     28 CL         62.7875   86.8184   18.9821 Cl      1  UNL1       -0.0822
     29 C          63.4006   87.5693   16.5717 C.ar    1  UNL1        0.0128
     30 C          63.4433   87.2963   15.0973 C.ar    1  UNL1        0.0208
     31 C          64.4473   83.3395   12.0435 C.3     1  UNL1        0.0203
     32 C          63.7549   82.1055   12.5415 C.3     1  UNL1        0.0015
     33 C          63.5105   81.1028   13.6300 C.3     1  UNL1        0.0000
     34 C          62.7999   80.9711   12.3156 C.3     1  UNL1        0.0000
@<TRIPOS>BOND
     1    11    12    1
     2    12    13    1
     3    13    14    1
     4    14    15    1
     5    15    16   am
     6    16    17    2
     7    16    10    1
     8    10     7    1
     9     1     7    1
    10     1     2    1
    11     2     3    1
    12     3     4    1
    13     4     5    1
    14     5    31    1
    15    31    32    1
    16    32    33    1
    17    33    34    1
    18     5     6    1
    19     6    21    1
    20    21    22    2
    21    21    23    2
    22    21    24    1
    23    24    25   ar
    24    25    26   ar
    25    26    27   ar
    26    27    28    1
    27    27    29   ar
    28    29    30   ar
    29     7     8    1
    30     8     9    1
    31    15    18    1
    32    18    19    1
    33    19    20    2
    34    19    12   am
    35     9     7    1
    36     6     1    1
    37    30    24   ar
    38    34    32    1
@<TRIPOS>MOLECULE
*****
 34 38 0 0 0
SMALL
GASTEIGER

@<TRIPOS>ATOM
      1 C          62.7683   88.8285   12.6113 C.3     1  UNL1        0.1455
      2 C          63.2044   89.3944   13.9301 C.3     1  UNL1        0.1634
      3 O          63.7763   88.4906   14.9819 O.3     1  UNL1       -0.3507
      4 C          63.9120   87.0208   14.7147 C.3     1  UNL1        0.1598
      5 C          63.4759   86.4549   13.3959 C.3     1  UNL1        0.1093
      6 N          62.9040   87.3586   12.3441 N.3     1  UNL1       -0.1499
      7 C          62.1965   89.7322   11.5595 C.3     1  UNL1        0.1550
      8 C          60.7559   89.7391   11.9772 C.3     1  UNL1        0.0453
      9 C          61.1933   90.5294   10.7796 C.3     1  UNL1        0.0453
     10 O          63.4385   90.0392   10.7765 O.3     1  UNL1       -0.4403
     11 C          67.5773   93.7575   14.8132 C.3     1  UNL1        0.1150
     12 N          66.6622   93.1821   13.7733 N.am    1  UNL1       -0.2746
     13 C          66.2254   94.0230   12.6105 C.3     1  UNL1        0.1151
     14 C          65.3102   93.4474   11.5706 C.3     1  UNL1        0.1187
     15 N          64.8320   92.0311   11.6936 N.am    1  UNL1       -0.2353
     16 C          63.9168   91.4556   10.6536 C.2     1  UNL1        0.4051
     17 O          63.4800   92.2965    9.4908 O.2     1  UNL1       -0.2262
     18 C          65.2687   91.1901   12.8563 C.3     1  UNL1        0.1820
     19 C          66.1839   91.7657   13.8962 C.2     1  UNL1        0.2461
     20 O          66.6207   90.9248   15.0590 O.2     1  UNL1       -0.2730
     21 S          62.4679   86.7928   11.0252 S.O2    1  UNL1        0.0635
     22 O          63.4950   87.0712   10.1945 O.2     1  UNL1       -0.1528
     23 O          61.1829   86.3327   11.6476 O.2     1  UNL1       -0.1528
     24 C          62.0316   86.2268    9.7063 C.ar    1  UNL1        0.1223
     25 C          62.9837   85.4013    8.8926 C.ar    1  UNL1        0.0208
     26 C          62.5473   84.8354    7.5737 C.ar    1  UNL1        0.0128
     27 C          61.1590   85.0950    7.0686 C.ar    1  UNL1        0.0578
     28 CL         60.7227   84.5291    5.7497 Cl      1  UNL1       -0.0822
     29 C          60.2070   85.9204    7.8824 C.ar    1  UNL1        0.0128
     30 C          60.6433   86.4864    9.2013 C.ar    1  UNL1        0.0208
     31 C          63.6115   84.9851   13.1286 C.3     1  UNL1        0.0203
     32 C          62.9981   83.9919   14.0706 C.3     1  UNL1        0.0015
     33 C          62.4733   83.6457   15.4324 C.3     1  UNL1        0.0000
     34 C          62.4604   82.6178   14.3401 C.3     1  UNL1        0.0000
@<TRIPOS>BOND
     1    11    12    1
     2    12    13    1
     3    13    14    1
     4    14    15    1
     5    15    16   am
     6    16    17    2
     7    16    10    1
     8    10     7    1
     9     1     7    1
    10     1     2    1
    11     2     3    1
    12     3     4    1
    13     4     5    1
    14     5    31    1
    15    31    32    1
    16    32    33    1
    17    33    34    1
    18     5     6    1
    19     6    21    1
    20    21    22    2
    21    21    23    2
    22    21    24    1
    23    24    25   ar
    24    25    26   ar
    25    26    27   ar
    26    27    28    1
    27    27    29   ar
    28    29    30   ar
    29     7     8    1
    30     8     9    1
    31    15    18    1
    32    18    19    1
    33    19    20    2
    34    19    12   am
    35     9     7    1
    36     6     1    1
    37    30    24   ar
    38    34    32    1
@<TRIPOS>MOLECULE
*****
 34 38 0 0 0
SMALL
GASTEIGER

@<TRIPOS>ATOM
      1 C          62.1600   88.5504   11.3109 C.3     1  UNL1        0.1455
      2 C          61.8349   89.8769   10.6907 C.3     1  UNL1        0.1634
      3 O          61.0738   89.9348    9.3994 O.3     1  UNL1       -0.3507
      4 C          60.6377   88.6660    8.7284 C.3     1  UNL1        0.1598
      5 C          60.9628   87.3395    9.3486 C.3     1  UNL1        0.1093
      6 N          61.7239   87.2817   10.6398 N.3     1  UNL1       -0.1499
      7 C          62.9211   88.4926   12.6021 C.3     1  UNL1        0.1550
      8 C          63.7989   87.3062   12.3341 C.3     1  UNL1        0.0453
      9 C          63.8953   88.0297   13.6446 C.3     1  UNL1        0.0453
     10 O          62.3077   89.6589   13.3186 O.3     1  UNL1       -0.4403
     11 C          67.5873   93.7914   14.8348 C.3     1  UNL1        0.1150
     12 N          66.4054   92.8689   14.7864 N.am    1  UNL1       -0.2746
     13 C          65.7758   92.3892   16.0605 C.3     1  UNL1        0.1151
     14 C          64.5939   91.4667   16.0121 C.3     1  UNL1        0.1187
     15 N          64.0418   91.0241   14.6895 N.am    1  UNL1       -0.2353
     16 C          62.8599   90.1016   14.6411 C.2     1  UNL1        0.4051
     17 O          62.2302   89.6218   15.9153 O.2     1  UNL1       -0.2262
     18 C          64.6714   91.5038   13.4154 C.3     1  UNL1        0.1820
     19 C          65.8533   92.4263   13.4639 C.2     1  UNL1        0.2461
     20 O          66.4829   92.9060   12.1898 O.2     1  UNL1       -0.2730
     21 S          62.0490   85.9552   11.2601 S.O2    1  UNL1        0.0635
     22 O          63.0944   85.5030   10.5354 O.2     1  UNL1       -0.1528
     23 O          60.9330   86.1422   12.2449 O.2     1  UNL1       -0.1528
     24 C          62.3741   84.6287   11.8805 C.ar    1  UNL1        0.1223
     25 C          62.7421   83.4638   11.0103 C.ar    1  UNL1        0.0208
     26 C          63.0672   82.1373   11.6308 C.ar    1  UNL1        0.0128
     27 C          63.0241   81.9759   13.1214 C.ar    1  UNL1        0.0578
     28 CL         63.3492   80.6495   13.7418 Cl      1  UNL1       -0.0822
     29 C          62.6561   83.1409   13.9916 C.ar    1  UNL1        0.0128
     30 C          62.3310   84.4674   13.3712 C.ar    1  UNL1        0.0208
     31 C          60.5268   86.0708    8.6777 C.3     1  UNL1        0.0203
     32 C          61.4210   85.4090    7.6714 C.3     1  UNL1        0.0015
     33 C          61.6061   84.7242    6.3498 C.3     1  UNL1        0.0000
     34 C          62.7847   84.9476    7.2503 C.3     1  UNL1        0.0000
@<TRIPOS>BOND
     1    11    12    1
     2    12    13    1
     3    13    14    1
     4    14    15    1
     5    15    16   am
     6    16    17    2
     7    16    10    1
     8    10     7    1
     9     1     7    1
    10     1     2    1
    11     2     3    1
    12     3     4    1
    13     4     5    1
    14     5    31    1
    15    31    32    1
    16    32    33    1
    17    33    34    1
    18     5     6    1
    19     6    21    1
    20    21    22    2
    21    21    23    2
    22    21    24    1
    23    24    25   ar
    24    25    26   ar
    25    26    27   ar
    26    27    28    1
    27    27    29   ar
    28    29    30   ar
    29     7     8    1
    30     8     9    1
    31    15    18    1
    32    18    19    1
    33    19    20    2
    34    19    12   am
    35     9     7    1
    36     6     1    1
    37    30    24   ar
    38    34    32    1
@<TRIPOS>MOLECULE
*****
 34 38 0 0 0
SMALL
GASTEIGER

@<TRIPOS>ATOM
      1 C          63.5313   90.0815   12.8365 C.3     1  UNL1        0.1455
      2 C          62.4270   89.6019   11.9418 C.3     1  UNL1        0.1634
      3 O          62.2485   90.2063   10.5806 O.3     1  UNL1       -0.3507
      4 C          63.1744   91.2904   10.1141 C.3     1  UNL1        0.1598
      5 C          64.2786   91.7700   11.0088 C.3     1  UNL1        0.1093
      6 N          64.4571   91.1656   12.3699 N.3     1  UNL1       -0.1499
      7 C          63.7097   89.4771   14.1976 C.3     1  UNL1        0.1550
      8 C          63.3279   90.6476   15.0545 C.3     1  UNL1        0.0453
      9 C          63.7341   89.3521   15.6923 C.3     1  UNL1        0.0453
     10 O          64.1536   88.0968   13.8136 O.3     1  UNL1       -0.4403
     11 C          62.5663   81.6195   12.1476 C.3     1  UNL1        0.1150
     12 N          62.8709   82.9456   12.7790 N.am    1  UNL1       -0.2746
     13 C          62.8068   83.0989   14.2697 C.3     1  UNL1        0.1151
     14 C          63.1114   84.4251   14.9011 C.3     1  UNL1        0.1187
     15 N          63.4802   85.5978   14.0416 N.am    1  UNL1       -0.2353
     16 C          63.7848   86.9240   14.6730 C.2     1  UNL1        0.4051
     17 O          63.7207   87.0774   16.1638 O.2     1  UNL1       -0.2262
     18 C          63.5444   85.4445   12.5509 C.3     1  UNL1        0.1820
     19 C          63.2397   84.1183   11.9195 C.2     1  UNL1        0.2461
     20 O          63.3039   83.9650   10.4288 O.2     1  UNL1       -0.2730
     21 S          65.5614   91.6452   13.2647 S.O2    1  UNL1        0.0635
     22 O          66.2728   90.5296   13.5325 O.2     1  UNL1       -0.1528
     23 O          65.0222   93.0425   13.1811 O.2     1  UNL1       -0.1528
     24 C          66.6657   92.1250   14.1594 C.ar    1  UNL1        0.1223
     25 C          66.3475   92.6491   15.5284 C.ar    1  UNL1        0.0208
     26 C          67.4519   93.1288   16.4231 C.ar    1  UNL1        0.0128
     27 C          68.8742   93.0844   15.9488 C.ar    1  UNL1        0.0578
     28 CL         69.9785   93.5640   16.8435 Cl      1  UNL1       -0.0822
     29 C          69.1922   92.5602   14.5799 C.ar    1  UNL1        0.0128
     30 C          68.0880   92.0804   13.6851 C.ar    1  UNL1        0.0208
     31 C          65.2045   92.8541   10.5424 C.3     1  UNL1        0.0203
     32 C          66.6166   92.5215   10.1606 C.3     1  UNL1        0.0015
     33 C          67.8580   92.8317    9.3780 C.3     1  UNL1        0.0000
     34 C          67.8206   91.6353   10.2820 C.3     1  UNL1        0.0000
@<TRIPOS>BOND
     1    11    12    1
     2    12    13    1
     3    13    14    1
     4    14    15    1
     5    15    16   am
     6    16    17    2
     7    16    10    1
     8    10     7    1
     9     1     7    1
    10     1     2    1
    11     2     3    1
    12     3     4    1
    13     4     5    1
    14     5    31    1
    15    31    32    1
    16    32    33    1
    17    33    34    1
    18     5     6    1
    19     6    21    1
    20    21    22    2
    21    21    23    2
    22    21    24    1
    23    24    25   ar
    24    25    26   ar
    25    26    27   ar
    26    27    28    1
    27    27    29   ar
    28    29    30   ar
    29     7     8    1
    30     8     9    1
    31    15    18    1
    32    18    19    1
    33    19    20    2
    34    19    12   am
    35     9     7    1
    36     6     1    1
    37    30    24   ar
    38    34    32    1
@<TRIPOS>MOLECULE
*****
 34 38 0 0 0
SMALL
GASTEIGER

@<TRIPOS>ATOM
      1 C          62.5611   95.5570    0.5040 C.3     1  UNL1        0.1455
      2 C          63.8551   95.9028    1.1790 C.3     1  UNL1        0.1634
      3 O          65.1118   96.0318    0.3703 O.3     1  UNL1       -0.3507
      4 C          65.0745   95.8149   -1.1135 C.3     1  UNL1        0.1598
      5 C          63.7804   95.4690   -1.7885 C.3     1  UNL1        0.1093
      6 N          62.5237   95.3401   -0.9798 N.3     1  UNL1       -0.1499
      7 C          61.3043   95.4280    1.3127 C.3     1  UNL1        0.1550
      8 C          61.1170   96.8558    1.7325 C.3     1  UNL1        0.0453
      9 C          60.1341   95.8104    2.1696 C.3     1  UNL1        0.0453
     10 O          61.0551   93.9554    1.1738 O.3     1  UNL1       -0.4403
     11 C          58.6637   90.1934    6.4063 C.3     1  UNL1        0.1150
     12 N          59.4352   90.8920    5.3261 N.am    1  UNL1       -0.2746
     13 C          60.9012   90.6230    5.1577 C.3     1  UNL1        0.1151
     14 C          61.6727   91.3217    4.0775 C.3     1  UNL1        0.1187
     15 N          60.9781   92.2892    3.1657 N.am    1  UNL1       -0.2353
     16 C          61.7497   92.9878    2.0856 C.2     1  UNL1        0.4051
     17 O          63.2157   92.7188    1.9172 O.2     1  UNL1       -0.2262
     18 C          59.5121   92.5582    3.3341 C.3     1  UNL1        0.1820
     19 C          58.7406   91.8596    4.4143 C.2     1  UNL1        0.2461
     20 O          57.2746   92.1286    4.5827 O.2     1  UNL1       -0.2730
     21 S          61.2295   94.9942   -1.6548 S.O2    1  UNL1        0.0635
     22 O          61.2325   93.6448   -1.6951 O.2     1  UNL1       -0.1528
     23 O          60.9034   96.4533   -1.7770 O.2     1  UNL1       -0.1528
     24 C          59.9353   94.6485   -2.3298 C.ar    1  UNL1        0.1223
     25 C          59.9281   94.2390   -3.7728 C.ar    1  UNL1        0.0208
     26 C          58.6338   93.8933   -4.4477 C.ar    1  UNL1        0.0128
     27 C          57.3469   93.9570   -3.6797 C.ar    1  UNL1        0.0578
     28 CL         56.0528   93.6113   -4.3546 Cl      1  UNL1       -0.0822
     29 C          57.3543   94.3665   -2.2367 C.ar    1  UNL1        0.0128
     30 C          58.6485   94.7122   -1.5617 C.ar    1  UNL1        0.0208
     31 C          63.7429   95.2521   -3.2723 C.3     1  UNL1        0.0203
     32 C          64.0004   93.8866   -3.8373 C.3     1  UNL1        0.0015
     33 C          64.0401   92.3968   -3.6675 C.3     1  UNL1        0.0000
     34 C          64.4066   93.0114   -4.9858 C.3     1  UNL1        0.0000
@<TRIPOS>BOND
     1    11    12    1
     2    12    13    1
     3    13    14    1
     4    14    15    1
     5    15    16   am
     6    16    17    2
     7    16    10    1
     8    10     7    1
     9     1     7    1
    10     1     2    1
    11     2     3    1
    12     3     4    1
    13     4     5    1
    14     5    31    1
    15    31    32    1
    16    32    33    1
    17    33    34    1
    18     5     6    1
    19     6    21    1
    20    21    22    2
    21    21    23    2
    22    21    24    1
    23    24    25   ar
    24    25    26   ar
    25    26    27   ar
    26    27    28    1
    27    27    29   ar
    28    29    30   ar
    29     7     8    1
    30     8     9    1
    31    15    18    1
    32    18    19    1
    33    19    20    2
    34    19    12   am
    35     9     7    1
    36     6     1    1
    37    30    24   ar
    38    34    32    1
