@<TRIPOS>MOLECULE
*****
 32 34 0 0 0
SMALL
GASTEIGER

@<TRIPOS>ATOM
      1 C          63.2566   90.3729   12.8811 C.ar    1  UNL1        0.1743
      2 N          64.0873   91.2087   11.9530 N.ar    1  UNL1       -0.2173
      3 C          65.0296   92.2350   12.5086 C.ar    1  UNL1        0.1834
      4 N          65.1413   92.4254   13.9923 N.ar    1  UNL1       -0.1885
      5 C          64.3106   91.5897   14.9204 C.ar    1  UNL1        0.2596
      6 O          64.4222   91.7801   16.4040 O.3     1  UNL1       -0.4898
      7 C          63.3682   90.5634   14.3648 C.ar    1  UNL1        0.2098
      8 O          62.5375   89.7275   15.2929 O.3     1  UNL1       -0.5007
      9 H          65.0109   92.4212   16.7511 H       1  UNL1        0.2938
     10 H          62.6072   89.8465   16.2197 H       1  UNL1        0.2924
     11 C          65.8604   93.0708   11.5805 C.ar    1  UNL1        0.1170
     12 C          66.7960   92.4108   10.6115 C.ar    1  UNL1        0.0261
     13 C          67.6267   93.2466    9.6835 C.ar    1  UNL1        0.0746
     14 C          67.5218   94.7424    9.7244 C.ar    1  UNL1        0.0245
     15 C          66.5862   95.4024   10.6934 C.ar    1  UNL1        0.0989
     16 N          65.7554   94.5665   11.6215 N.ar    1  UNL1       -0.2408
     17 C          68.5624   92.5866    8.7145 C.3     1  UNL1        0.4187
     18 F          69.4981   91.9267    7.7455 F       1  UNL1       -0.1659
     19 F          68.2176   93.6167    7.6800 F       1  UNL1       -0.1659
     20 F          68.9072   91.5566    9.7489 F       1  UNL1       -0.1659
     21 N          62.8351   88.2465   11.4489 N.am    1  UNL1       -0.3012
     22 C          62.3142   89.3466   12.3256 C.2     1  UNL1        0.2668
     23 O          60.8508   89.4203   12.6467 O.2     1  UNL1       -0.2684
     24 H          63.7956   88.1981   11.2382 H       1  UNL1        0.1497
     25 C          61.8193   85.8561   11.5129 C.3     1  UNL1        0.0213
     26 C          61.8927   87.2202   10.8934 C.3     1  UNL1        0.0719
     27 C          61.0238   87.5581    9.7183 C.3     1  UNL1        0.0180
     28 C          60.8317   88.9898    9.3146 C.3     1  UNL1        0.0016
     29 C          59.9628   89.3277    8.1395 C.3     1  UNL1        0.0001
     30 C          59.2859   88.2337    7.3682 C.3     1  UNL1        0.0000
     31 C          59.4779   86.8018    7.7719 C.3     1  UNL1        0.0001
     32 C          60.3469   86.4640    8.9469 C.3     1  UNL1        0.0016
@<TRIPOS>BOND
     1    26    25    1
     2    26    21    1
     3    21    22   am
     4    22    23    2
     5    22     1    1
     6     1     2   ar
     7     2     3   ar
     8     3    11    1
     9    11    12   ar
    10    12    13   ar
    11    13    17    1
    12    17    18    1
    13    17    19    1
    14    17    20    1
    15    13    14   ar
    16    14    15   ar
    17    15    16   ar
    18     3     4   ar
    19     4     5   ar
    20     5     6    1
    21     5     7   ar
    22     7     8    1
    23    26    27    1
    24    27    28    1
    25    28    29    1
    26    29    30    1
    27    30    31    1
    28    31    32    1
    29     7     1   ar
    30    32    27    1
    31    16    11   ar
    32    21    24    1
    33     6     9    1
    34     8    10    1
@<TRIPOS>MOLECULE
*****
 32 34 0 0 0
SMALL
GASTEIGER

@<TRIPOS>ATOM
      1 C          62.8576   88.1433   12.1763 C.ar    1  UNL1        0.1743
      2 N          63.5890   88.8872   13.2541 N.ar    1  UNL1       -0.2173
      3 C          63.9501   90.3296   13.0571 C.ar    1  UNL1        0.1834
      4 N          63.5798   91.0282   11.7824 N.ar    1  UNL1       -0.1885
      5 C          62.8484   90.2843   10.7047 C.ar    1  UNL1        0.2596
      6 O          62.4781   90.9829    9.4300 O.3     1  UNL1       -0.4898
      7 C          62.4873   88.8418   10.9016 C.ar    1  UNL1        0.2098
      8 O          61.7558   88.0979    9.8238 O.3     1  UNL1       -0.5007
      9 H          62.7036   91.8840    9.3070 H       1  UNL1        0.2938
     10 H          61.5245   88.5342    9.0276 H       1  UNL1        0.2924
     11 C          64.6816   91.0736   14.1349 C.ar    1  UNL1        0.1170
     12 C          66.1346   91.4046   13.9641 C.ar    1  UNL1        0.0261
     13 C          66.8661   92.1485   15.0418 C.ar    1  UNL1        0.0746
     14 C          66.1445   92.5615   16.2904 C.ar    1  UNL1        0.0245
     15 C          64.6915   92.2305   16.4612 C.ar    1  UNL1        0.0989
     16 N          63.9600   91.4866   15.3834 N.ar    1  UNL1       -0.2408
     17 C          68.3191   92.4795   14.8710 C.3     1  UNL1        0.4187
     18 F          69.7721   92.8105   14.7002 F       1  UNL1       -0.1659
     19 F          68.3141   91.8090   13.5292 F       1  UNL1       -0.1659
     20 F          68.3241   93.1500   16.2128 F       1  UNL1       -0.1659
     21 N          63.2664   85.8613   13.3491 N.am    1  UNL1       -0.3012
     22 C          62.4964   86.7007   12.3732 C.2     1  UNL1        0.2668
     23 O          61.3653   86.0977   11.5942 O.2     1  UNL1       -0.2684
     24 H          64.0089   86.2571   13.8604 H       1  UNL1        0.1497
     25 C          62.2876   83.9697   14.8371 C.3     1  UNL1        0.0213
     26 C          62.9053   84.4187   13.5460 C.3     1  UNL1        0.0719
     27 C          63.1618   83.4253   12.4519 C.3     1  UNL1        0.0180
     28 C          64.0280   83.8004   11.2861 C.3     1  UNL1        0.0016
     29 C          64.2846   82.8070   10.1920 C.3     1  UNL1        0.0001
     30 C          63.6750   81.4383   10.2635 C.3     1  UNL1        0.0000
     31 C          62.8087   81.0631   11.4293 C.3     1  UNL1        0.0001
     32 C          62.5522   82.0566   12.5234 C.3     1  UNL1        0.0016
@<TRIPOS>BOND
     1    26    25    1
     2    26    21    1
     3    21    22   am
     4    22    23    2
     5    22     1    1
     6     1     2   ar
     7     2     3   ar
     8     3    11    1
     9    11    12   ar
    10    12    13   ar
    11    13    17    1
    12    17    18    1
    13    17    19    1
    14    17    20    1
    15    13    14   ar
    16    14    15   ar
    17    15    16   ar
    18     3     4   ar
    19     4     5   ar
    20     5     6    1
    21     5     7   ar
    22     7     8    1
    23    26    27    1
    24    27    28    1
    25    28    29    1
    26    29    30    1
    27    30    31    1
    28    31    32    1
    29     7     1   ar
    30    32    27    1
    31    16    11   ar
    32    21    24    1
    33     6     9    1
    34     8    10    1
@<TRIPOS>MOLECULE
*****
 32 34 0 0 0
SMALL
GASTEIGER

@<TRIPOS>ATOM
      1 C          62.1334   87.5106   10.9118 C.ar    1  UNL1        0.1743
      2 N          62.8620   88.1281   12.0684 N.ar    1  UNL1       -0.2173
      3 C          62.6277   89.5673   12.4202 C.ar    1  UNL1        0.1834
      4 N          61.6650   90.3890   11.6152 N.ar    1  UNL1       -0.1885
      5 C          60.9364   89.7715   10.4586 C.ar    1  UNL1        0.2596
      6 O          59.9736   90.5932    9.6537 O.3     1  UNL1       -0.4898
      7 C          61.1707   88.3323   10.1069 C.ar    1  UNL1        0.2098
      8 O          60.4421   87.7147    8.9502 O.3     1  UNL1       -0.5007
      9 H          59.8273   91.4922    9.8734 H       1  UNL1        0.2938
     10 H          59.8407   88.2280    8.4474 H       1  UNL1        0.2924
     11 C          63.3563   90.1849   13.5769 C.ar    1  UNL1        0.1170
     12 C          64.6426   90.9213   13.3461 C.ar    1  UNL1        0.0261
     13 C          65.3711   91.5388   14.5027 C.ar    1  UNL1        0.0746
     14 C          64.8134   91.4201   15.8901 C.ar    1  UNL1        0.0245
     15 C          63.5271   90.6837   16.1209 C.ar    1  UNL1        0.0989
     16 N          62.7986   90.0661   14.9642 N.ar    1  UNL1       -0.2408
     17 C          66.6574   92.2752   14.2720 C.3     1  UNL1        0.4187
     18 F          67.9437   93.0116   14.0412 F       1  UNL1       -0.1659
     19 F          65.9130   93.3408   13.5233 F       1  UNL1       -0.1659
     20 F          67.4017   91.2096   15.0206 F       1  UNL1       -0.1659
     21 N          63.0940   85.1738   11.5175 N.am    1  UNL1       -0.3012
     22 C          62.3676   86.0713   10.5600 C.2     1  UNL1        0.2668
     23 O          61.8755   85.5296    9.2507 O.2     1  UNL1       -0.2684
     24 H          63.4170   85.5293   12.3769 H       1  UNL1        0.1497
     25 C          63.9946   83.3780    9.8701 C.3     1  UNL1        0.0213
     26 C          63.3282   83.7345   11.1658 C.3     1  UNL1        0.0719
     27 C          62.8959   82.6518   12.1096 C.3     1  UNL1        0.0180
     28 C          62.3947   83.0061   13.4783 C.3     1  UNL1        0.0016
     29 C          61.9624   81.9234   14.4222 C.3     1  UNL1        0.0001
     30 C          62.0314   80.4865   13.9974 C.3     1  UNL1        0.0000
     31 C          62.5326   80.1321   12.6287 C.3     1  UNL1        0.0001
     32 C          62.9649   81.2148   11.6848 C.3     1  UNL1        0.0016
@<TRIPOS>BOND
     1    26    25    1
     2    26    21    1
     3    21    22   am
     4    22    23    2
     5    22     1    1
     6     1     2   ar
     7     2     3   ar
     8     3    11    1
     9    11    12   ar
    10    12    13   ar
    11    13    17    1
    12    17    18    1
    13    17    19    1
    14    17    20    1
    15    13    14   ar
    16    14    15   ar
    17    15    16   ar
    18     3     4   ar
    19     4     5   ar
    20     5     6    1
    21     5     7   ar
    22     7     8    1
    23    26    27    1
    24    27    28    1
    25    28    29    1
    26    29    30    1
    27    30    31    1
    28    31    32    1
    29     7     1   ar
    30    32    27    1
    31    16    11   ar
    32    21    24    1
    33     6     9    1
    34     8    10    1
@<TRIPOS>MOLECULE
*****
 32 34 0 0 0
SMALL
GASTEIGER

@<TRIPOS>ATOM
      1 C          62.4195   87.9114   11.5554 C.ar    1  UNL1        0.1743
      2 N          62.7617   86.6231   12.2431 N.ar    1  UNL1       -0.2173
      3 C          62.4489   85.3137   11.5816 C.ar    1  UNL1        0.1834
      4 N          61.7939   85.2926   10.2324 N.ar    1  UNL1       -0.1885
      5 C          61.4517   86.5810    9.5446 C.ar    1  UNL1        0.2596
      6 O          60.7968   86.5599    8.1953 O.3     1  UNL1       -0.4898
      7 C          61.7645   87.8903   10.2061 C.ar    1  UNL1        0.2098
      8 O          61.4224   89.1788    9.5183 O.3     1  UNL1       -0.5007
      9 H          60.6014   85.7419    7.7821 H       1  UNL1        0.2938
     10 H          61.0132   89.1656    8.6754 H       1  UNL1        0.2924
     11 C          62.7911   84.0253   12.2694 C.ar    1  UNL1        0.1170
     12 C          62.6213   82.7215   11.5473 C.ar    1  UNL1        0.0261
     13 C          62.9635   81.4332   12.2350 C.ar    1  UNL1        0.0746
     14 C          63.4754   81.4485   13.6449 C.ar    1  UNL1        0.0245
     15 C          63.6452   82.7522   14.3670 C.ar    1  UNL1        0.0989
     16 N          63.3030   84.0406   13.6793 N.ar    1  UNL1       -0.2408
     17 C          62.7937   80.1294   11.5129 C.3     1  UNL1        0.4187
     18 F          62.6240   78.8257   10.7908 F       1  UNL1       -0.1659
     19 F          62.4423   79.4581   12.8074 F       1  UNL1       -0.1659
     20 F          63.1451   80.8007   10.2183 F       1  UNL1       -0.1659
     21 N          63.9875   89.3725   13.0239 N.am    1  UNL1       -0.3012
     22 C          62.7323   89.2209   12.2168 C.2     1  UNL1        0.2668
     23 O          61.7899   90.3787   12.0712 O.2     1  UNL1       -0.2684
     24 H          64.6061   88.6125   13.1195 H       1  UNL1        0.1497
     25 C          63.9641   90.8905   15.1323 C.3     1  UNL1        0.0213
     26 C          64.3003   90.6820   13.6854 C.3     1  UNL1        0.0719
     27 C          64.9494   91.7828   12.9000 C.3     1  UNL1        0.0180
     28 C          65.8569   92.7598   13.5869 C.3     1  UNL1        0.0016
     29 C          66.5060   93.8606   12.8015 C.3     1  UNL1        0.0001
     30 C          66.2475   93.9845   11.3292 C.3     1  UNL1        0.0000
     31 C          65.3399   93.0075   10.6422 C.3     1  UNL1        0.0001
     32 C          64.6909   91.9066   11.4276 C.3     1  UNL1        0.0016
@<TRIPOS>BOND
     1    26    25    1
     2    26    21    1
     3    21    22   am
     4    22    23    2
     5    22     1    1
     6     1     2   ar
     7     2     3   ar
     8     3    11    1
     9    11    12   ar
    10    12    13   ar
    11    13    17    1
    12    17    18    1
    13    17    19    1
    14    17    20    1
    15    13    14   ar
    16    14    15   ar
    17    15    16   ar
    18     3     4   ar
    19     4     5   ar
    20     5     6    1
    21     5     7   ar
    22     7     8    1
    23    26    27    1
    24    27    28    1
    25    28    29    1
    26    29    30    1
    27    30    31    1
    28    31    32    1
    29     7     1   ar
    30    32    27    1
    31    16    11   ar
    32    21    24    1
    33     6     9    1
    34     8    10    1
@<TRIPOS>MOLECULE
*****
 32 34 0 0 0
SMALL
GASTEIGER

@<TRIPOS>ATOM
      1 C          61.8866   87.7178   11.2877 C.ar    1  UNL1        0.1743
      2 N          63.0466   88.4769   11.8605 N.ar    1  UNL1       -0.2173
      3 C          62.8769   89.9103   12.2686 C.ar    1  UNL1        0.1834
      4 N          61.5472   90.5846   12.1039 N.ar    1  UNL1       -0.1885
      5 C          60.3872   89.8255   11.5311 C.ar    1  UNL1        0.2596
      6 O          59.0574   90.4998   11.3664 O.3     1  UNL1       -0.4898
      7 C          60.5569   88.3921   11.1230 C.ar    1  UNL1        0.2098
      8 O          59.3969   87.6330   10.5501 O.3     1  UNL1       -0.5007
      9 H          58.9514   91.3952   11.6214 H       1  UNL1        0.2938
     10 H          58.5662   88.0542   10.4472 H       1  UNL1        0.2924
     11 C          64.0369   90.6694   12.8415 C.ar    1  UNL1        0.1170
     12 C          64.5745   91.8717   12.1235 C.ar    1  UNL1        0.0261
     13 C          65.7345   92.6308   12.6963 C.ar    1  UNL1        0.0746
     14 C          66.3569   92.1877   13.9871 C.ar    1  UNL1        0.0245
     15 C          65.8193   90.9855   14.7052 C.ar    1  UNL1        0.0989
     16 N          64.6593   90.2263   14.1323 N.ar    1  UNL1       -0.2408
     17 C          66.2721   93.8331   11.9782 C.3     1  UNL1        0.4187
     18 F          66.8097   95.0354   11.2602 F       1  UNL1       -0.1659
     19 F          66.4078   94.5539   13.2867 F       1  UNL1       -0.1659
     20 F          66.1364   93.1123   10.6698 F       1  UNL1       -0.1659
     21 N          63.0700   85.4224   11.5719 N.am    1  UNL1       -0.3012
     22 C          62.0563   86.2844   10.8795 C.2     1  UNL1        0.2668
     23 O          61.2123   85.7130    9.7790 O.2     1  UNL1       -0.2684
     24 H          63.6239   85.7974   12.2942 H       1  UNL1        0.1497
     25 C          63.7752   83.6550    9.8030 C.3     1  UNL1        0.0213
     26 C          63.2397   83.9890   11.1638 C.3     1  UNL1        0.0719
     27 C          62.8739   82.8896   12.1164 C.3     1  UNL1        0.0180
     28 C          62.9458   81.4584   11.6733 C.3     1  UNL1        0.0016
     29 C          62.5800   80.3590   12.6259 C.3     1  UNL1        0.0001
     30 C          62.1423   80.6908   14.0217 C.3     1  UNL1        0.0000
     31 C          62.0704   82.1221   14.4649 C.3     1  UNL1        0.0001
     32 C          62.4362   83.2215   13.5123 C.3     1  UNL1        0.0016
@<TRIPOS>BOND
     1    26    25    1
     2    26    21    1
     3    21    22   am
     4    22    23    2
     5    22     1    1
     6     1     2   ar
     7     2     3   ar
     8     3    11    1
     9    11    12   ar
    10    12    13   ar
    11    13    17    1
    12    17    18    1
    13    17    19    1
    14    17    20    1
    15    13    14   ar
    16    14    15   ar
    17    15    16   ar
    18     3     4   ar
    19     4     5   ar
    20     5     6    1
    21     5     7   ar
    22     7     8    1
    23    26    27    1
    24    27    28    1
    25    28    29    1
    26    29    30    1
    27    30    31    1
    28    31    32    1
    29     7     1   ar
    30    32    27    1
    31    16    11   ar
    32    21    24    1
    33     6     9    1
    34     8    10    1
@<TRIPOS>MOLECULE
*****
 32 34 0 0 0
SMALL
GASTEIGER

@<TRIPOS>ATOM
      1 C          63.1379   89.2449   12.4448 C.ar    1  UNL1        0.1743
      2 N          63.3549   87.8298   12.8923 N.ar    1  UNL1       -0.2173
      3 C          62.8161   86.6936   12.0745 C.ar    1  UNL1        0.1834
      4 N          62.0603   86.9726   10.8093 N.ar    1  UNL1       -0.1885
      5 C          61.8432   88.3877   10.3618 C.ar    1  UNL1        0.2596
      6 O          61.0874   88.6667    9.0965 O.3     1  UNL1       -0.4898
      7 C          62.3821   89.5238   11.1795 C.ar    1  UNL1        0.2098
      8 O          62.1651   90.9391   10.7320 O.3     1  UNL1       -0.5007
      9 H          60.7508   87.9569    8.5857 H       1  UNL1        0.2938
     10 H          61.6929   91.1133    9.9417 H       1  UNL1        0.2924
     11 C          63.0331   85.2784   12.5220 C.ar    1  UNL1        0.1170
     12 C          63.0077   84.1627   11.5198 C.ar    1  UNL1        0.0261
     13 C          63.2246   82.7475   11.9672 C.ar    1  UNL1        0.0746
     14 C          63.4671   82.4481   13.4169 C.ar    1  UNL1        0.0245
     15 C          63.4925   83.5638   14.4192 C.ar    1  UNL1        0.0989
     16 N          63.2755   84.9790   13.9717 N.ar    1  UNL1       -0.2408
     17 C          63.1992   81.6318   10.9650 C.3     1  UNL1        0.4187
     18 F          63.1738   80.5160    9.9628 F       1  UNL1       -0.1659
     19 F          62.5519   80.7357   11.9789 F       1  UNL1       -0.1659
     20 F          63.8465   82.5278    9.9510 F       1  UNL1       -0.1659
     21 N          64.2546   90.1190   14.6217 N.am    1  UNL1       -0.3012
     22 C          63.6767   90.3811   13.2625 C.2     1  UNL1        0.2668
     23 O          63.6376   91.7795   12.7211 O.2     1  UNL1       -0.2684
     24 H          64.2803   89.2013   14.9770 H       1  UNL1        0.1497
     25 C          63.9374   91.8930   16.4932 C.3     1  UNL1        0.0213
     26 C          64.7935   91.2553   15.4394 C.3     1  UNL1        0.0719
     27 C          66.1884   91.7537   15.2034 C.3     1  UNL1        0.0180
     28 C          66.8768   92.5794   16.2495 C.3     1  UNL1        0.0016
     29 C          68.2718   93.0779   16.0135 C.3     1  UNL1        0.0001
     30 C          68.9783   92.7506   14.7314 C.3     1  UNL1        0.0000
     31 C          68.2899   91.9249   13.6853 C.3     1  UNL1        0.0001
     32 C          66.8949   91.4264   13.9213 C.3     1  UNL1        0.0016
@<TRIPOS>BOND
     1    26    25    1
     2    26    21    1
     3    21    22   am
     4    22    23    2
     5    22     1    1
     6     1     2   ar
     7     2     3   ar
     8     3    11    1
     9    11    12   ar
    10    12    13   ar
    11    13    17    1
    12    17    18    1
    13    17    19    1
    14    17    20    1
    15    13    14   ar
    16    14    15   ar
    17    15    16   ar
    18     3     4   ar
    19     4     5   ar
    20     5     6    1
    21     5     7   ar
    22     7     8    1
    23    26    27    1
    24    27    28    1
    25    28    29    1
    26    29    30    1
    27    30    31    1
    28    31    32    1
    29     7     1   ar
    30    32    27    1
    31    16    11   ar
    32    21    24    1
    33     6     9    1
    34     8    10    1
@<TRIPOS>MOLECULE
*****
 32 34 0 0 0
SMALL
GASTEIGER

@<TRIPOS>ATOM
      1 C          63.6865   88.1343   15.4031 C.ar    1  UNL1        0.1743
      2 N          63.8121   87.0258   14.4005 N.ar    1  UNL1       -0.2173
      3 C          63.4397   85.6237   14.7820 C.ar    1  UNL1        0.1834
      4 N          62.9417   85.3302   16.1661 N.ar    1  UNL1       -0.1885
      5 C          62.8161   86.4388   17.1688 C.ar    1  UNL1        0.2596
      6 O          62.3181   86.1453   18.5529 O.3     1  UNL1       -0.4898
      7 C          63.1885   87.8408   16.7873 C.ar    1  UNL1        0.2098
      8 O          63.0629   88.9494   17.7899 O.3     1  UNL1       -0.5007
      9 H          62.0854   85.2695   18.7912 H       1  UNL1        0.2938
     10 H          62.7518   88.7661   18.6546 H       1  UNL1        0.2924
     11 C          63.5653   84.5151   13.7793 C.ar    1  UNL1        0.1170
     12 C          63.4415   84.8115   12.3141 C.ar    1  UNL1        0.0261
     13 C          63.5670   83.7030   11.3115 C.ar    1  UNL1        0.0746
     14 C          63.8164   82.2980   11.7740 C.ar    1  UNL1        0.0245
     15 C          63.9403   82.0016   13.2392 C.ar    1  UNL1        0.0989
     16 N          63.8147   83.1102   14.2419 N.ar    1  UNL1       -0.2408
     17 C          63.4432   83.9993    9.8462 C.3     1  UNL1        0.4187
     18 F          63.3194   84.2957    8.3810 F       1  UNL1       -0.1659
     19 F          64.4734   82.9509    9.5471 F       1  UNL1       -0.1659
     20 F          62.4131   85.0478   10.1454 F       1  UNL1       -0.1659
     21 N          65.0484   89.7763   13.9202 N.am    1  UNL1       -0.3012
     22 C          64.0589   89.5364   15.0216 C.2     1  UNL1        0.2668
     23 O          63.4418   90.6986   15.7417 O.2     1  UNL1       -0.2684
     24 H          65.4535   89.0135   13.4476 H       1  UNL1        0.1497
     25 C          64.6442   91.8980   12.4763 C.3     1  UNL1        0.0213
     26 C          65.4209   91.1784   13.5387 C.3     1  UNL1        0.0719
     27 C          66.5700   91.8608   14.2197 C.3     1  UNL1        0.0180
     28 C          67.9378   91.8190   13.6056 C.3     1  UNL1        0.0016
     29 C          69.0870   92.5014   14.2866 C.3     1  UNL1        0.0001
     30 C          68.8682   93.2257   15.5818 C.3     1  UNL1        0.0000
     31 C          67.5004   93.2676   16.1960 C.3     1  UNL1        0.0001
     32 C          66.3512   92.5851   15.5150 C.3     1  UNL1        0.0016
@<TRIPOS>BOND
     1    26    25    1
     2    26    21    1
     3    21    22   am
     4    22    23    2
     5    22     1    1
     6     1     2   ar
     7     2     3   ar
     8     3    11    1
     9    11    12   ar
    10    12    13   ar
    11    13    17    1
    12    17    18    1
    13    17    19    1
    14    17    20    1
    15    13    14   ar
    16    14    15   ar
    17    15    16   ar
    18     3     4   ar
    19     4     5   ar
    20     5     6    1
    21     5     7   ar
    22     7     8    1
    23    26    27    1
    24    27    28    1
    25    28    29    1
    26    29    30    1
    27    30    31    1
    28    31    32    1
    29     7     1   ar
    30    32    27    1
    31    16    11   ar
    32    21    24    1
    33     6     9    1
    34     8    10    1
@<TRIPOS>MOLECULE
*****
 32 34 0 0 0
SMALL
GASTEIGER

@<TRIPOS>ATOM
      1 C          62.3762   88.0386   11.5442 C.ar    1  UNL1        0.1743
      2 N          63.3772   89.0791   11.9509 N.ar    1  UNL1       -0.2173
      3 C          63.2922   90.4644   11.3819 C.ar    1  UNL1        0.1834
      4 N          62.2063   90.8092   10.4063 N.ar    1  UNL1       -0.1885
      5 C          61.2054   89.7687    9.9996 C.ar    1  UNL1        0.2596
      6 O          60.1194   90.1134    9.0239 O.3     1  UNL1       -0.4898
      7 C          61.2903   88.3834   10.5686 C.ar    1  UNL1        0.2098
      8 O          60.2893   87.3428   10.1619 O.3     1  UNL1       -0.5007
      9 H          60.0664   90.9788    8.6685 H       1  UNL1        0.2938
     10 H          59.6110   87.5582    9.5524 H       1  UNL1        0.2924
     11 C          64.2932   91.5050   11.7886 C.ar    1  UNL1        0.1170
     12 C          64.7936   91.5524   13.2019 C.ar    1  UNL1        0.0261
     13 C          65.7945   92.5929   13.6086 C.ar    1  UNL1        0.0746
     14 C          66.2951   93.5860   12.6020 C.ar    1  UNL1        0.0245
     15 C          65.7947   93.5386   11.1887 C.ar    1  UNL1        0.0989
     16 N          64.7937   92.4980   10.7821 N.ar    1  UNL1       -0.2408
     17 C          66.2949   92.6403   15.0219 C.3     1  UNL1        0.4187
     18 F          66.7953   92.6877   16.4352 F       1  UNL1       -0.1659
     19 F          66.8754   94.0004   14.7707 F       1  UNL1       -0.1659
     20 F          65.7144   91.2802   15.2731 F       1  UNL1       -0.1659
     21 N          63.5601   86.3023   13.0719 N.am    1  UNL1       -0.3012
     22 C          62.4611   86.6533   12.1132 C.2     1  UNL1        0.2668
     23 O          61.4471   85.6190   11.7235 O.2     1  UNL1       -0.2684
     24 H          64.2256   86.9812   13.3277 H       1  UNL1        0.1497
     25 C          63.8450   84.7224   15.1147 C.3     1  UNL1        0.0213
     26 C          63.6450   84.9170   13.6409 C.3     1  UNL1        0.0719
     27 C          63.5299   83.7262   12.7360 C.3     1  UNL1        0.0180
     28 C          64.3262   83.6695   11.4661 C.3     1  UNL1        0.0016
     29 C          64.2111   82.4787   10.5612 C.3     1  UNL1        0.0001
     30 C          63.2998   81.3446   10.9262 C.3     1  UNL1        0.0000
     31 C          62.5035   81.4013   12.1962 C.3     1  UNL1        0.0001
     32 C          62.6186   82.5920   13.1011 C.3     1  UNL1        0.0016
@<TRIPOS>BOND
     1    26    25    1
     2    26    21    1
     3    21    22   am
     4    22    23    2
     5    22     1    1
     6     1     2   ar
     7     2     3   ar
     8     3    11    1
     9    11    12   ar
    10    12    13   ar
    11    13    17    1
    12    17    18    1
    13    17    19    1
    14    17    20    1
    15    13    14   ar
    16    14    15   ar
    17    15    16   ar
    18     3     4   ar
    19     4     5   ar
    20     5     6    1
    21     5     7   ar
    22     7     8    1
    23    26    27    1
    24    27    28    1
    25    28    29    1
    26    29    30    1
    27    30    31    1
    28    31    32    1
    29     7     1   ar
    30    32    27    1
    31    16    11   ar
    32    21    24    1
    33     6     9    1
    34     8    10    1
@<TRIPOS>MOLECULE
*****
 32 34 0 0 0
SMALL
GASTEIGER

@<TRIPOS>ATOM
      1 C          63.7620   88.5112   15.2922 C.ar    1  UNL1        0.1743
      2 N          63.8613   87.5936   14.1098 N.ar    1  UNL1       -0.2173
      3 C          63.4626   86.1537   14.2425 C.ar    1  UNL1        0.1834
      4 N          62.9646   85.6314   15.5575 N.ar    1  UNL1       -0.1885
      5 C          62.8654   86.5490   16.7399 C.ar    1  UNL1        0.2596
      6 O          62.3675   86.0267   18.0549 O.3     1  UNL1       -0.4898
      7 C          63.2641   87.9889   16.6072 C.ar    1  UNL1        0.2098
      8 O          63.1649   88.9067   17.7896 O.3     1  UNL1       -0.5007
      9 H          62.1184   85.1273   18.1377 H       1  UNL1        0.2938
     10 H          62.8538   88.5804   18.6111 H       1  UNL1        0.2924
     11 C          63.5618   85.2360   13.0600 C.ar    1  UNL1        0.1170
     12 C          63.0394   85.6748   11.7242 C.ar    1  UNL1        0.0261
     13 C          63.1386   84.7572   10.5418 C.ar    1  UNL1        0.0746
     14 C          63.7602   83.4006   10.6953 C.ar    1  UNL1        0.0245
     15 C          64.2826   82.9618   12.0311 C.ar    1  UNL1        0.0989
     16 N          64.1834   83.8795   13.2135 N.ar    1  UNL1       -0.2408
     17 C          62.6162   85.1960    9.2059 C.3     1  UNL1        0.4187
     18 F          62.0938   85.6348    7.8701 F       1  UNL1       -0.1659
     19 F          63.3886   84.0948    8.5421 F       1  UNL1       -0.1659
     20 F          61.8437   86.2972    9.8698 F       1  UNL1       -0.1659
     21 N          65.5017   90.3088   14.5906 N.am    1  UNL1       -0.3012
     22 C          64.1607   89.9512   15.1596 C.2     1  UNL1        0.2668
     23 O          63.2184   91.0336   15.5960 O.2     1  UNL1       -0.2684
     24 H          66.1202   89.5984   14.3041 H       1  UNL1        0.1497
     25 C          66.4291   92.4933   15.6480 C.3     1  UNL1        0.0213
     26 C          65.9004   91.7488   14.4580 C.3     1  UNL1        0.0719
     27 C          65.7705   92.4442   13.1353 C.3     1  UNL1        0.0180
     28 C          66.4323   93.7727   12.9182 C.3     1  UNL1        0.0016
     29 C          66.3023   94.4681   11.5955 C.3     1  UNL1        0.0001
     30 C          65.5105   93.8351   10.4899 C.3     1  UNL1        0.0000
     31 C          64.8487   92.5066   10.7070 C.3     1  UNL1        0.0001
     32 C          64.9786   91.8112   12.0297 C.3     1  UNL1        0.0016
@<TRIPOS>BOND
     1    26    25    1
     2    26    21    1
     3    21    22   am
     4    22    23    2
     5    22     1    1
     6     1     2   ar
     7     2     3   ar
     8     3    11    1
     9    11    12   ar
    10    12    13   ar
    11    13    17    1
    12    17    18    1
    13    17    19    1
    14    17    20    1
    15    13    14   ar
    16    14    15   ar
    17    15    16   ar
    18     3     4   ar
    19     4     5   ar
    20     5     6    1
    21     5     7   ar
    22     7     8    1
    23    26    27    1
    24    27    28    1
    25    28    29    1
    26    29    30    1
    27    30    31    1
    28    31    32    1
    29     7     1   ar
    30    32    27    1
    31    16    11   ar
    32    21    24    1
    33     6     9    1
    34     8    10    1
