@<TRIPOS>MOLECULE
*****
 35 39 0 0 0
SMALL
GASTEIGER

@<TRIPOS>ATOM
      1 C          63.3831   91.6396    9.9676 C.3     1  UNL1        0.1306
      2 N          64.0404   91.5976   11.3153 N.ar    1  UNL1       -0.3218
      3 C          64.9830   92.6247   11.8689 C.ar    1  UNL1        0.0616
      4 C          65.5189   93.9051   11.3004 C.ar    1  UNL1        0.0172
      5 C          66.4674   94.7438   12.1047 C.ar    1  UNL1        0.0016
      6 C          66.8800   94.3020   13.4775 C.ar    1  UNL1        0.0046
      7 C          66.3440   93.0216   14.0461 C.ar    1  UNL1        0.0560
      8 C          65.3955   92.1830   13.2418 C.ar    1  UNL1        0.0394
      9 C          64.7079   90.8829   13.5365 C.ar    1  UNL1        0.1030
     10 N          64.7362   89.9817   14.7353 N.ar    1  UNL1       -0.2224
     11 C          63.9269   88.7187   14.7434 C.ar    1  UNL1        0.2001
     12 N          63.0894   88.3569   13.5528 N.ar    1  UNL1       -0.2075
     13 C          63.0611   89.2581   12.3541 C.ar    1  UNL1        0.1509
     14 C          63.8703   90.5211   12.3459 C.ar    1  UNL1        0.1099
     15 N          62.2235   88.8963   11.1634 N.pl3   1  UNL1       -0.2892
     16 C          61.0579   89.7575   10.7769 C.3     1  UNL1        0.1095
     17 C          60.2203   89.3956    9.5862 C.3     1  UNL1        0.0939
     18 N          60.5485   88.1726    8.7821 N.3     1  UNL1       -0.2695
     19 C          61.7142   87.3114    9.1687 C.3     1  UNL1        0.0939
     20 C          62.5517   87.6732   10.3593 C.3     1  UNL1        0.1095
     21 C          59.7109   87.8108    7.5915 C.3     1  UNL1        0.0769
     22 C          58.6150   88.7293    7.1384 C.3     1  UNL1        0.0437
     23 C          58.9153   89.8346    6.1698 C.ar    1  UNL1       -0.0184
     24 C          57.8112   90.7247    5.6818 C.ar    1  UNL1       -0.0018
     25 C          58.1115   91.8301    4.7132 C.ar    1  UNL1        0.0316
     26 C          59.5161   92.0452    4.2327 C.ar    1  UNL1        0.1674
     27 F          59.8164   93.1504    3.2641 F       1  UNL1       -0.2018
     28 C          60.6204   91.1549    4.7207 C.ar    1  UNL1        0.1671
     29 F          62.0249   91.3700    4.2402 F       1  UNL1       -0.2018
     30 C          60.3200   90.0497    5.6892 C.ar    1  UNL1        0.0277
     31 C          66.7566   92.5799   15.4189 C.2     1  UNL1        0.2428
     32 N          65.7996   92.7072   16.5669 N.am    1  UNL1       -0.3253
     33 O          68.1261   92.0109   15.6437 O.2     1  UNL1       -0.2704
     34 H          64.9007   93.0807   16.4194 H       1  UNL1        0.1453
     35 H          66.0704   92.4173   17.4679 H       1  UNL1        0.1453
@<TRIPOS>BOND
     1     1     2    1
     2     2     3   ar
     3     3     4   ar
     4     4     5   ar
     5     5     6   ar
     6     6     7   ar
     7     7    31    1
     8    31    32   am
     9    31    33    2
    10     7     8   ar
    11     8     9   ar
    12     9    10   ar
    13    10    11   ar
    14    11    12   ar
    15    12    13   ar
    16    13    15    1
    17    15    16    1
    18    16    17    1
    19    17    18    1
    20    18    21    1
    21    21    22    1
    22    22    23    1
    23    23    24   ar
    24    24    25   ar
    25    25    26   ar
    26    26    27    1
    27    26    28   ar
    28    28    29    1
    29    28    30   ar
    30    18    19    1
    31    19    20    1
    32    13    14   ar
    33    14     2   ar
    34     8     3   ar
    35    14     9   ar
    36    20    15    1
    37    30    23   ar
    38    32    34    1
    39    32    35    1
@<TRIPOS>MOLECULE
*****
 35 39 0 0 0
SMALL
GASTEIGER

@<TRIPOS>ATOM
      1 C          59.6153   92.6340    0.2415 C.3     1  UNL1        0.1306
      2 N          60.8071   93.2160   -0.4591 N.ar    1  UNL1       -0.3218
      3 C          60.8709   93.6204   -1.9021 C.ar    1  UNL1        0.0616
      4 C          59.8533   93.5749   -3.0032 C.ar    1  UNL1        0.0172
      5 C          60.2124   94.0590   -4.3767 C.ar    1  UNL1        0.0016
      6 C          61.5891   94.5887   -4.6492 C.ar    1  UNL1        0.0046
      7 C          62.6067   94.6342   -3.5482 C.ar    1  UNL1        0.0560
      8 C          62.2476   94.1501   -2.1746 C.ar    1  UNL1        0.0394
      9 C          63.0346   94.0729   -0.9000 C.ar    1  UNL1        0.1030
     10 N          64.4469   94.4537   -0.5678 N.ar    1  UNL1       -0.2224
     11 C          64.9689   94.2572    0.8247 C.ar    1  UNL1        0.2001
     12 N          64.0786   93.6799    1.8849 N.ar    1  UNL1       -0.2075
     13 C          62.6663   93.2991    1.5527 C.ar    1  UNL1        0.1509
     14 C          62.1443   93.4956    0.1603 C.ar    1  UNL1        0.1099
     15 N          61.7761   92.7218    2.6130 N.pl3   1  UNL1       -0.2892
     16 C          62.2288   91.5321    3.4064 C.3     1  UNL1        0.1095
     17 C          61.3385   90.9548    4.4667 C.3     1  UNL1        0.0939
     18 N          59.9955   91.5672    4.7335 N.3     1  UNL1       -0.2695
     19 C          59.5427   92.7570    3.9400 C.3     1  UNL1        0.0939
     20 C          60.4330   93.3342    2.8798 C.3     1  UNL1        0.1095
     21 C          59.1052   90.9899    5.7937 C.3     1  UNL1        0.0769
     22 C          59.0096   89.5028    5.9648 C.3     1  UNL1        0.0437
     23 C          59.4233   88.8686    7.2596 C.ar    1  UNL1       -0.0184
     24 C          59.1954   87.4031    7.4835 C.ar    1  UNL1       -0.0018
     25 C          59.6091   86.7690    8.7785 C.ar    1  UNL1        0.0316
     26 C          60.2509   87.6004    9.8494 C.ar    1  UNL1        0.1674
     27 F          60.6646   86.9662   11.1442 F       1  UNL1       -0.2018
     28 C          60.4789   89.0660    9.6255 C.ar    1  UNL1        0.1671
     29 F          61.1206   89.8974   10.6964 F       1  UNL1       -0.2018
     30 C          60.0651   89.7000    8.3306 C.ar    1  UNL1        0.0277
     31 C          63.9834   95.1638   -3.8206 C.2     1  UNL1        0.2428
     32 N          64.4531   96.4161   -3.1418 N.am    1  UNL1       -0.3253
     33 O          64.8903   94.4411   -4.7720 O.2     1  UNL1       -0.2704
     34 H          63.8579   96.8905   -2.5173 H       1  UNL1        0.1453
     35 H          65.3567   96.7637   -3.3206 H       1  UNL1        0.1453
@<TRIPOS>BOND
     1     1     2    1
     2     2     3   ar
     3     3     4   ar
     4     4     5   ar
     5     5     6   ar
     6     6     7   ar
     7     7    31    1
     8    31    32   am
     9    31    33    2
    10     7     8   ar
    11     8     9   ar
    12     9    10   ar
    13    10    11   ar
    14    11    12   ar
    15    12    13   ar
    16    13    15    1
    17    15    16    1
    18    16    17    1
    19    17    18    1
    20    18    21    1
    21    21    22    1
    22    22    23    1
    23    23    24   ar
    24    24    25   ar
    25    25    26   ar
    26    26    27    1
    27    26    28   ar
    28    28    29    1
    29    28    30   ar
    30    18    19    1
    31    19    20    1
    32    13    14   ar
    33    14     2   ar
    34     8     3   ar
    35    14     9   ar
    36    20    15    1
    37    30    23   ar
    38    32    34    1
    39    32    35    1
@<TRIPOS>MOLECULE
*****
 35 39 0 0 0
SMALL
GASTEIGER

@<TRIPOS>ATOM
      1 C          59.4620   93.8893   -1.9444 C.3     1  UNL1        0.1306
      2 N          60.8500   94.0642   -1.4034 N.ar    1  UNL1       -0.3218
      3 C          61.3500   93.5648   -0.0803 C.ar    1  UNL1        0.0616
      4 C          60.6795   92.8002    1.0223 C.ar    1  UNL1        0.0172
      5 C          61.4498   92.4321    2.2556 C.ar    1  UNL1        0.0016
      6 C          62.8905   92.8285    2.3863 C.ar    1  UNL1        0.0046
      7 C          63.5610   93.5930    1.2836 C.ar    1  UNL1        0.0560
      8 C          62.7908   93.9612    0.0503 C.ar    1  UNL1        0.0394
      9 C          63.1812   94.7056   -1.1920 C.ar    1  UNL1        0.1030
     10 N          64.4739   95.3338   -1.6212 N.ar    1  UNL1       -0.2224
     11 C          64.5672   96.0256   -2.9489 C.ar    1  UNL1        0.2001
     12 N          63.3678   96.0893   -3.8473 N.ar    1  UNL1       -0.2075
     13 C          62.0750   95.4612   -3.4182 C.ar    1  UNL1        0.1509
     14 C          61.9817   94.7693   -2.0905 C.ar    1  UNL1        0.1099
     15 N          60.8756   95.5249   -4.3166 N.pl3   1  UNL1       -0.2892
     16 C          60.6898   94.4975   -5.3935 C.3     1  UNL1        0.1095
     17 C          59.4903   94.5612   -6.2920 C.3     1  UNL1        0.0939
     18 N          58.4767   95.6524   -6.1135 N.3     1  UNL1       -0.2695
     19 C          58.6625   96.6798   -5.0366 C.3     1  UNL1        0.0939
     20 C          59.8619   96.6161   -4.1382 C.3     1  UNL1        0.1095
     21 C          57.2772   95.7161   -7.0120 C.3     1  UNL1        0.0769
     22 C          56.0172   94.9958   -6.6331 C.3     1  UNL1        0.0437
     23 C          56.0123   94.0583   -5.4622 C.ar    1  UNL1       -0.0184
     24 C          56.2390   92.5910   -5.6754 C.ar    1  UNL1       -0.0018
     25 C          56.2341   91.6535   -4.5044 C.ar    1  UNL1        0.0316
     26 C          56.0025   92.1833   -3.1204 C.ar    1  UNL1        0.1674
     27 F          55.9977   91.2458   -1.9495 F       1  UNL1       -0.2018
     28 C          55.7758   93.6507   -2.9072 C.ar    1  UNL1        0.1671
     29 F          55.5442   94.1805   -1.5232 F       1  UNL1       -0.2018
     30 C          55.7807   94.5881   -4.0781 C.ar    1  UNL1        0.0277
     31 C          65.0018   93.9895    1.4143 C.2     1  UNL1        0.2428
     32 N          66.0507   93.2802    0.6101 N.am    1  UNL1       -0.3253
     33 O          65.3936   95.0951    2.3492 O.2     1  UNL1       -0.2704
     34 H          65.7935   92.5546   -0.0035 H       1  UNL1        0.1453
     35 H          66.9963   93.5404    0.6959 H       1  UNL1        0.1453
@<TRIPOS>BOND
     1     1     2    1
     2     2     3   ar
     3     3     4   ar
     4     4     5   ar
     5     5     6   ar
     6     6     7   ar
     7     7    31    1
     8    31    32   am
     9    31    33    2
    10     7     8   ar
    11     8     9   ar
    12     9    10   ar
    13    10    11   ar
    14    11    12   ar
    15    12    13   ar
    16    13    15    1
    17    15    16    1
    18    16    17    1
    19    17    18    1
    20    18    21    1
    21    21    22    1
    22    22    23    1
    23    23    24   ar
    24    24    25   ar
    25    25    26   ar
    26    26    27    1
    27    26    28   ar
    28    28    29    1
    29    28    30   ar
    30    18    19    1
    31    19    20    1
    32    13    14   ar
    33    14     2   ar
    34     8     3   ar
    35    14     9   ar
    36    20    15    1
    37    30    23   ar
    38    32    34    1
    39    32    35    1
@<TRIPOS>MOLECULE
*****
 35 39 0 0 0
SMALL
GASTEIGER

@<TRIPOS>ATOM
      1 C          61.9345   90.4666   10.4128 C.3     1  UNL1        0.1306
      2 N          62.4272   89.3854   11.3283 N.ar    1  UNL1       -0.3218
      3 C          63.2888   89.5814   12.5405 C.ar    1  UNL1        0.0616
      4 C          63.8779   90.8114   13.1649 C.ar    1  UNL1        0.0172
      5 C          64.7172   90.6956   14.4027 C.ar    1  UNL1        0.0016
      6 C          64.9673   89.3497   15.0160 C.ar    1  UNL1        0.0046
      7 C          64.3782   88.1197   14.3916 C.ar    1  UNL1        0.0560
      8 C          63.5390   88.2356   13.1538 C.ar    1  UNL1        0.0394
      9 C          62.8319   87.2079   12.3208 C.ar    1  UNL1        0.1030
     10 N          62.7250   85.7168   12.4438 N.ar    1  UNL1       -0.2224
     11 C          61.9309   84.9363   11.4386 C.ar    1  UNL1        0.2001
     12 N          61.2438   85.6469   10.3103 N.ar    1  UNL1       -0.2075
     13 C          61.3507   87.1381   10.1873 C.ar    1  UNL1        0.1509
     14 C          62.1448   87.9185   11.1925 C.ar    1  UNL1        0.1099
     15 N          60.6636   87.8487    9.0591 N.pl3   1  UNL1       -0.2892
     16 C          60.2090   87.0795    7.8544 C.3     1  UNL1        0.1095
     17 C          59.5218   87.7902    6.7262 C.3     1  UNL1        0.0939
     18 N          59.2894   89.2701    6.8028 N.3     1  UNL1       -0.2695
     19 C          59.7441   90.0393    8.0076 C.3     1  UNL1        0.0939
     20 C          60.4312   89.3287    9.1357 C.3     1  UNL1        0.1095
     21 C          58.6023   89.9807    5.6746 C.3     1  UNL1        0.0769
     22 C          58.9261   91.4163    5.3844 C.3     1  UNL1        0.0437
     23 C          59.9977   91.7577    4.3918 C.ar    1  UNL1       -0.0184
     24 C          59.7187   92.7433    3.2962 C.ar    1  UNL1       -0.0018
     25 C          60.7903   93.0846    2.3036 C.ar    1  UNL1        0.0316
     26 C          62.1409   92.4402    2.4066 C.ar    1  UNL1        0.1674
     27 F          63.2124   92.7815    1.4140 F       1  UNL1       -0.2018
     28 C          62.4199   91.4545    3.5023 C.ar    1  UNL1        0.1671
     29 F          63.7704   90.8100    3.6053 F       1  UNL1       -0.2018
     30 C          61.3483   91.1132    4.4948 C.ar    1  UNL1        0.0277
     31 C          64.6283   86.7739   15.0050 C.2     1  UNL1        0.2428
     32 N          63.5104   86.0397   15.6839 N.am    1  UNL1       -0.3253
     33 O          65.9964   86.1624   14.9394 O.2     1  UNL1       -0.2704
     34 H          62.6125   86.4410   15.7270 H       1  UNL1        0.1453
     35 H          63.6746   85.1563   16.0865 H       1  UNL1        0.1453
@<TRIPOS>BOND
     1     1     2    1
     2     2     3   ar
     3     3     4   ar
     4     4     5   ar
     5     5     6   ar
     6     6     7   ar
     7     7    31    1
     8    31    32   am
     9    31    33    2
    10     7     8   ar
    11     8     9   ar
    12     9    10   ar
    13    10    11   ar
    14    11    12   ar
    15    12    13   ar
    16    13    15    1
    17    15    16    1
    18    16    17    1
    19    17    18    1
    20    18    21    1
    21    21    22    1
    22    22    23    1
    23    23    24   ar
    24    24    25   ar
    25    25    26   ar
    26    26    27    1
    27    26    28   ar
    28    28    29    1
    29    28    30   ar
    30    18    19    1
    31    19    20    1
    32    13    14   ar
    33    14     2   ar
    34     8     3   ar
    35    14     9   ar
    36    20    15    1
    37    30    23   ar
    38    32    34    1
    39    32    35    1
@<TRIPOS>MOLECULE
*****
 35 39 0 0 0
SMALL
GASTEIGER

@<TRIPOS>ATOM
      1 C          61.3936   85.2940    9.1400 C.3     1  UNL1        0.1306
      2 N          62.1606   85.3816   10.4261 N.ar    1  UNL1       -0.3218
      3 C          62.8193   84.2382   11.1394 C.ar    1  UNL1        0.0616
      4 C          62.9111   82.7754   10.8204 C.ar    1  UNL1        0.0172
      5 C          63.6530   81.8523   11.7409 C.ar    1  UNL1        0.0016
      6 C          64.3030   82.3919   12.9804 C.ar    1  UNL1        0.0046
      7 C          64.2112   83.8547   13.2993 C.ar    1  UNL1        0.0560
      8 C          63.4693   84.7778   12.3788 C.ar    1  UNL1        0.0394
      9 C          63.2123   86.2547   12.4315 C.ar    1  UNL1        0.1030
     10 N          63.6104   87.3080   13.4226 N.ar    1  UNL1       -0.2224
     11 C          63.1996   88.7344   13.2067 C.ar    1  UNL1        0.2001
     12 N          62.3908   89.1076   11.9999 N.ar    1  UNL1       -0.2075
     13 C          61.9927   88.0543   11.0089 C.ar    1  UNL1        0.1509
     14 C          62.4035   86.6279   11.2247 C.ar    1  UNL1        0.1099
     15 N          61.1839   88.4275    9.8020 N.pl3   1  UNL1       -0.2892
     16 C          60.2311   87.4365    9.2020 C.3     1  UNL1        0.1095
     17 C          59.4222   87.8098    7.9951 C.3     1  UNL1        0.0939
     18 N          59.5662   89.1740    7.3883 N.3     1  UNL1       -0.2695
     19 C          60.5191   90.1650    7.9883 C.3     1  UNL1        0.0939
     20 C          61.3279   89.7917    9.1951 C.3     1  UNL1        0.1095
     21 C          58.7574   89.5471    6.1814 C.3     1  UNL1        0.0769
     22 C          58.6836   90.9793    5.7415 C.3     1  UNL1        0.0437
     23 C          59.6332   91.4940    4.7006 C.ar    1  UNL1       -0.0184
     24 C          59.1707   92.5131    3.7019 C.ar    1  UNL1       -0.0018
     25 C          60.1204   93.0278    2.6610 C.ar    1  UNL1        0.0316
     26 C          61.5323   92.5233    2.6188 C.ar    1  UNL1        0.1674
     27 F          62.4818   93.0380    1.5779 F       1  UNL1       -0.2018
     28 C          61.9948   91.5041    3.6175 C.ar    1  UNL1        0.1671
     29 F          63.4067   90.9996    3.5754 F       1  UNL1       -0.2018
     30 C          61.0452   90.9895    4.6584 C.ar    1  UNL1        0.0277
     31 C          64.8612   84.3943   14.5388 C.2     1  UNL1        0.2428
     32 N          66.3331   84.6833   14.5487 N.am    1  UNL1       -0.3253
     33 O          64.0395   84.6449   15.7683 O.2     1  UNL1       -0.2704
     34 H          66.8725   84.5189   13.7417 H       1  UNL1        0.1453
     35 H          66.7597   85.0375   15.3622 H       1  UNL1        0.1453
@<TRIPOS>BOND
     1     1     2    1
     2     2     3   ar
     3     3     4   ar
     4     4     5   ar
     5     5     6   ar
     6     6     7   ar
     7     7    31    1
     8    31    32   am
     9    31    33    2
    10     7     8   ar
    11     8     9   ar
    12     9    10   ar
    13    10    11   ar
    14    11    12   ar
    15    12    13   ar
    16    13    15    1
    17    15    16    1
    18    16    17    1
    19    17    18    1
    20    18    21    1
    21    21    22    1
    22    22    23    1
    23    23    24   ar
    24    24    25   ar
    25    25    26   ar
    26    26    27    1
    27    26    28   ar
    28    28    29    1
    29    28    30   ar
    30    18    19    1
    31    19    20    1
    32    13    14   ar
    33    14     2   ar
    34     8     3   ar
    35    14     9   ar
    36    20    15    1
    37    30    23   ar
    38    32    34    1
    39    32    35    1
