@<TRIPOS>MOLECULE
*****
 25 27 0 0 0
SMALL
GASTEIGER

@<TRIPOS>ATOM
      1 C          63.4883   90.6314   12.6380 C.ar    1  UNL1        0.1450
      2 C          63.0269   91.1057   11.2919 C.ar    1  UNL1        0.0561
      3 C          62.4917   90.1227   10.2933 C.ar    1  UNL1        0.0860
      4 N          62.4179   88.6654   10.6408 N.ar    1  UNL1       -0.2729
      5 C          62.8793   88.1911   11.9869 C.ar    1  UNL1        0.2679
      6 O          62.8056   86.7337   12.3345 O.2     1  UNL1       -0.2665
      7 C          63.4145   89.1741   12.9855 C.ar    1  UNL1        0.0980
      8 C          61.8827   87.6823    9.6422 C.ar    1  UNL1        0.0670
      9 C          60.4754   87.8142    9.1401 C.ar    1  UNL1        0.0199
     10 C          59.9402   86.8311    8.1414 C.ar    1  UNL1        0.0311
     11 C          60.8123   85.7163    7.6449 C.ar    1  UNL1        0.1402
     12 F          60.2771   84.7333    6.6463 F       1  UNL1       -0.2042
     13 C          62.2196   85.5845    8.1470 C.ar    1  UNL1        0.0311
     14 C          62.7548   86.5675    9.1456 C.ar    1  UNL1        0.0199
     15 O          64.0236   91.6144   13.6366 O.3     1  UNL1       -0.4714
     16 C          65.4981   91.6865   13.9019 C.3     1  UNL1        0.2485
     17 C          67.2503   93.4277   14.7071 C.3     1  UNL1        0.0513
     18 C          66.2343   92.9777   13.6995 C.3     1  UNL1        0.2094
     19 O          65.9545   93.8189   12.4895 O.3     1  UNL1       -0.4753
     20 C          66.7389   93.6042   11.2291 C.ar    1  UNL1        0.1386
     21 C          67.3765   92.2734   10.9601 C.ar    1  UNL1        0.0369
     22 C          68.1610   92.0587    9.6996 C.ar    1  UNL1        0.0031
     23 C          68.3077   93.1748    8.7083 C.ar    1  UNL1        0.0002
     24 C          67.6700   94.5056    8.9773 C.ar    1  UNL1        0.0031
     25 C          66.8856   94.7203   10.2377 C.ar    1  UNL1        0.0369
@<TRIPOS>BOND
     1    17    18    1
     2    18    16    1
     3    16    15    1
     4    15     1    1
     5     1     2   ar
     6     2     3   ar
     7     3     4   ar
     8     4     8    1
     9     8     9   ar
    10     9    10   ar
    11    10    11   ar
    12    11    12    1
    13    11    13   ar
    14    13    14   ar
    15     4     5   ar
    16     5     6    2
    17     5     7   ar
    18    18    19    1
    19    19    20    1
    20    20    21   ar
    21    21    22   ar
    22    22    23   ar
    23    23    24   ar
    24    24    25   ar
    25     7     1   ar
    26    25    20   ar
    27    14     8   ar
@<TRIPOS>MOLECULE
*****
 25 27 0 0 0
SMALL
GASTEIGER

@<TRIPOS>ATOM
      1 C          62.7883   90.0095   11.3827 C.ar    1  UNL1        0.1450
      2 C          63.5038   91.2541   10.9480 C.ar    1  UNL1        0.0561
      3 C          64.5939   91.8297   11.8026 C.ar    1  UNL1        0.0860
      4 N          64.9685   91.1608   13.0918 N.ar    1  UNL1       -0.2729
      5 C          64.2529   89.9162   13.5266 C.ar    1  UNL1        0.2679
      6 O          64.6275   89.2473   14.8158 O.2     1  UNL1       -0.2665
      7 C          63.1628   89.3406   12.6720 C.ar    1  UNL1        0.0980
      8 C          66.0586   91.7365   13.9464 C.ar    1  UNL1        0.0670
      9 C          67.4599   91.8216   13.4180 C.ar    1  UNL1        0.0199
     10 C          68.5500   92.3973   14.2726 C.ar    1  UNL1        0.0311
     11 C          68.2389   92.8879   15.6555 C.ar    1  UNL1        0.1402
     12 F          69.3289   93.4635   16.5101 F       1  UNL1       -0.2042
     13 C          66.8375   92.8028   16.1839 C.ar    1  UNL1        0.0311
     14 C          65.7475   92.2271   15.3293 C.ar    1  UNL1        0.0199
     15 O          61.6981   89.4338   10.5282 O.3     1  UNL1       -0.4714
     16 C          61.9615   88.2121    9.6988 C.3     1  UNL1        0.2485
     17 C          60.1393   86.5781    8.8270 C.3     1  UNL1        0.0513
     18 C          61.1216   86.9833    9.8857 C.3     1  UNL1        0.2094
     19 O          61.2640   86.1599   11.1313 O.3     1  UNL1       -0.4753
     20 C          62.3166   85.0941   11.2095 C.ar    1  UNL1        0.1386
     21 C          62.9326   84.5548    9.9527 C.ar    1  UNL1        0.0369
     22 C          63.9853   83.4890   10.0309 C.ar    1  UNL1        0.0031
     23 C          64.4218   82.9624   11.3659 C.ar    1  UNL1        0.0002
     24 C          63.8057   83.5018   12.6227 C.ar    1  UNL1        0.0031
     25 C          62.7531   84.5676   12.5445 C.ar    1  UNL1        0.0369
@<TRIPOS>BOND
     1    17    18    1
     2    18    16    1
     3    16    15    1
     4    15     1    1
     5     1     2   ar
     6     2     3   ar
     7     3     4   ar
     8     4     8    1
     9     8     9   ar
    10     9    10   ar
    11    10    11   ar
    12    11    12    1
    13    11    13   ar
    14    13    14   ar
    15     4     5   ar
    16     5     6    2
    17     5     7   ar
    18    18    19    1
    19    19    20    1
    20    20    21   ar
    21    21    22   ar
    22    22    23   ar
    23    23    24   ar
    24    24    25   ar
    25     7     1   ar
    26    25    20   ar
    27    14     8   ar
@<TRIPOS>MOLECULE
*****
 25 27 0 0 0
SMALL
GASTEIGER

@<TRIPOS>ATOM
      1 C          62.9270   89.5904   12.2743 C.ar    1  UNL1        0.1450
      2 C          63.5280   89.0193   13.5243 C.ar    1  UNL1        0.0561
      3 C          64.6578   89.7320   14.2066 C.ar    1  UNL1        0.0860
      4 N          65.1865   91.0158   13.6389 N.ar    1  UNL1       -0.2729
      5 C          64.5855   91.5869   12.3889 C.ar    1  UNL1        0.2679
      6 O          65.1143   92.8707   11.8212 O.2     1  UNL1       -0.2665
      7 C          63.4557   90.8742   11.7066 C.ar    1  UNL1        0.0980
      8 C          66.3164   91.7285   14.3213 C.ar    1  UNL1        0.0670
      9 C          66.0887   92.4048   15.6407 C.ar    1  UNL1        0.0199
     10 C          67.2185   93.1175   16.3231 C.ar    1  UNL1        0.0311
     11 C          68.5760   93.1539   15.6860 C.ar    1  UNL1        0.1402
     12 F          69.7059   93.8666   16.3683 F       1  UNL1       -0.2042
     13 C          68.8037   92.4776   14.3665 C.ar    1  UNL1        0.0311
     14 C          67.6739   91.7650   13.6842 C.ar    1  UNL1        0.0199
     15 O          61.7971   88.8777   11.5919 O.3     1  UNL1       -0.4714
     16 C          62.0273   88.1930   10.2773 C.3     1  UNL1        0.2485
     17 C          60.8542   86.5534    8.6384 C.3     1  UNL1        0.0513
     18 C          61.3929   86.8614   10.0040 C.3     1  UNL1        0.2094
     19 O          61.2972   85.8379   11.0964 O.3     1  UNL1       -0.4753
     20 C          62.3932   84.8301   11.2780 C.ar    1  UNL1        0.1386
     21 C          62.7789   84.3818   12.6565 C.ar    1  UNL1        0.0369
     22 C          63.8750   83.3739   12.8382 C.ar    1  UNL1        0.0031
     23 C          64.5853   82.8144   11.6413 C.ar    1  UNL1        0.0002
     24 C          64.1995   83.2628   10.2628 C.ar    1  UNL1        0.0031
     25 C          63.1035   84.2706   10.0812 C.ar    1  UNL1        0.0369
@<TRIPOS>BOND
     1    17    18    1
     2    18    16    1
     3    16    15    1
     4    15     1    1
     5     1     2   ar
     6     2     3   ar
     7     3     4   ar
     8     4     8    1
     9     8     9   ar
    10     9    10   ar
    11    10    11   ar
    12    11    12    1
    13    11    13   ar
    14    13    14   ar
    15     4     5   ar
    16     5     6    2
    17     5     7   ar
    18    18    19    1
    19    19    20    1
    20    20    21   ar
    21    21    22   ar
    22    22    23   ar
    23    23    24   ar
    24    24    25   ar
    25     7     1   ar
    26    25    20   ar
    27    14     8   ar
@<TRIPOS>MOLECULE
*****
 25 27 0 0 0
SMALL
GASTEIGER

@<TRIPOS>ATOM
      1 C          64.0364   88.3989   13.7675 C.ar    1  UNL1        0.1450
      2 C          64.5285   87.3853   14.7576 C.ar    1  UNL1        0.0561
      3 C          64.2576   85.9269   14.5353 C.ar    1  UNL1        0.0860
      4 N          63.4946   85.4820   13.3229 N.ar    1  UNL1       -0.2729
      5 C          63.0025   86.4957   12.3328 C.ar    1  UNL1        0.2679
      6 O          62.2394   86.0509   11.1204 O.2     1  UNL1       -0.2665
      7 C          63.2734   87.9541   12.5551 C.ar    1  UNL1        0.0980
      8 C          63.2237   84.0235   13.1006 C.ar    1  UNL1        0.0670
      9 C          62.4442   83.2421   14.1163 C.ar    1  UNL1        0.0199
     10 C          62.1732   81.7836   13.8940 C.ar    1  UNL1        0.0311
     11 C          62.6819   81.1065   12.6560 C.ar    1  UNL1        0.1402
     12 F          62.4110   79.6480   12.4337 F       1  UNL1       -0.2042
     13 C          63.4614   81.8879   11.6402 C.ar    1  UNL1        0.0311
     14 C          63.7323   83.3464   11.8625 C.ar    1  UNL1        0.0199
     15 O          64.3073   89.8575   13.9898 O.3     1  UNL1       -0.4714
     16 C          63.6182   90.8859   13.1428 C.3     1  UNL1        0.2485
     17 C          63.8501   91.5438   10.6401 C.3     1  UNL1        0.0513
     18 C          64.3702   91.5808   12.0465 C.3     1  UNL1        0.2094
     19 O          65.6422   92.3127   12.3568 O.3     1  UNL1       -0.4753
     20 C          66.3707   93.0448   11.2690 C.ar    1  UNL1        0.1386
     21 C          66.0819   94.4951   11.0175 C.ar    1  UNL1        0.0369
     22 C          66.8103   95.2273    9.9297 C.ar    1  UNL1        0.0031
     23 C          67.8277   94.5092    9.0934 C.ar    1  UNL1        0.0002
     24 C          68.1165   93.0588    9.3450 C.ar    1  UNL1        0.0031
     25 C          67.3880   92.3267   10.4327 C.ar    1  UNL1        0.0369
@<TRIPOS>BOND
     1    17    18    1
     2    18    16    1
     3    16    15    1
     4    15     1    1
     5     1     2   ar
     6     2     3   ar
     7     3     4   ar
     8     4     8    1
     9     8     9   ar
    10     9    10   ar
    11    10    11   ar
    12    11    12    1
    13    11    13   ar
    14    13    14   ar
    15     4     5   ar
    16     5     6    2
    17     5     7   ar
    18    18    19    1
    19    19    20    1
    20    20    21   ar
    21    21    22   ar
    22    22    23   ar
    23    23    24   ar
    24    24    25   ar
    25     7     1   ar
    26    25    20   ar
    27    14     8   ar
@<TRIPOS>MOLECULE
*****
 25 27 0 0 0
SMALL
GASTEIGER

@<TRIPOS>ATOM
      1 C          64.1453   90.0960   13.4748 C.ar    1  UNL1        0.1450
      2 C          63.5897   90.5001   12.1414 C.ar    1  UNL1        0.0561
      3 C          64.2273   91.6180   11.3709 C.ar    1  UNL1        0.0860
      4 N          65.4204   92.3319   11.9339 N.ar    1  UNL1       -0.2729
      5 C          65.9760   91.9277   13.2672 C.ar    1  UNL1        0.2679
      6 O          67.1691   92.6416   13.8301 O.2     1  UNL1       -0.2665
      7 C          65.3384   90.8098   14.0377 C.ar    1  UNL1        0.0980
      8 C          66.0580   93.4498   11.1633 C.ar    1  UNL1        0.0670
      9 C          66.9264   93.1446    9.9790 C.ar    1  UNL1        0.0199
     10 C          67.5640   94.2626    9.2085 C.ar    1  UNL1        0.0311
     11 C          67.3330   95.6858    9.6222 C.ar    1  UNL1        0.1402
     12 F          67.9705   96.8038    8.8518 F       1  UNL1       -0.2042
     13 C          66.4645   95.9910   10.8066 C.ar    1  UNL1        0.0311
     14 C          65.8270   94.8730   11.5771 C.ar    1  UNL1        0.0199
     15 O          63.5077   88.9780   14.2454 O.3     1  UNL1       -0.4714
     16 C          64.3637   87.9329   14.8973 C.3     1  UNL1        0.2485
     17 C          65.4129   85.5587   14.7857 C.3     1  UNL1        0.0513
     18 C          64.3226   86.5162   14.4059 C.3     1  UNL1        0.2094
     19 O          63.1911   86.0571   13.5347 O.3     1  UNL1       -0.4753
     20 C          62.9034   84.5922   13.3889 C.ar    1  UNL1        0.1386
     21 C          62.4043   83.8053   14.5643 C.ar    1  UNL1        0.0369
     22 C          62.1166   82.3404   14.4185 C.ar    1  UNL1        0.0031
     23 C          62.3281   81.6624   13.0973 C.ar    1  UNL1        0.0002
     24 C          62.8272   82.4494   11.9218 C.ar    1  UNL1        0.0031
     25 C          63.1149   83.9143   12.0677 C.ar    1  UNL1        0.0369
@<TRIPOS>BOND
     1    17    18    1
     2    18    16    1
     3    16    15    1
     4    15     1    1
     5     1     2   ar
     6     2     3   ar
     7     3     4   ar
     8     4     8    1
     9     8     9   ar
    10     9    10   ar
    11    10    11   ar
    12    11    12    1
    13    11    13   ar
    14    13    14   ar
    15     4     5   ar
    16     5     6    2
    17     5     7   ar
    18    18    19    1
    19    19    20    1
    20    20    21   ar
    21    21    22   ar
    22    22    23   ar
    23    23    24   ar
    24    24    25   ar
    25     7     1   ar
    26    25    20   ar
    27    14     8   ar
@<TRIPOS>MOLECULE
*****
 25 27 0 0 0
SMALL
GASTEIGER

@<TRIPOS>ATOM
      1 C          63.6383   87.8568   13.0482 C.ar    1  UNL1        0.1450
      2 C          62.8083   87.2392   11.9623 C.ar    1  UNL1        0.0561
      3 C          62.5531   85.7610   11.9621 C.ar    1  UNL1        0.0860
      4 N          63.1281   84.9006   13.0480 N.ar    1  UNL1       -0.2729
      5 C          63.9581   85.5183   14.1340 C.ar    1  UNL1        0.2679
      6 O          64.5331   84.6579   15.2198 O.2     1  UNL1       -0.2665
      7 C          64.2133   86.9964   14.1341 C.ar    1  UNL1        0.0980
      8 C          62.8729   83.4224   13.0478 C.ar    1  UNL1        0.0670
      9 C          62.1921   82.7787   14.2192 C.ar    1  UNL1        0.0199
     10 C          61.9370   81.3005   14.2190 C.ar    1  UNL1        0.0311
     11 C          62.3627   80.4661   13.0475 C.ar    1  UNL1        0.1402
     12 F          62.1076   78.9880   13.0472 F       1  UNL1       -0.2042
     13 C          63.0435   81.1099   11.8761 C.ar    1  UNL1        0.0311
     14 C          63.2986   82.5880   11.8763 C.ar    1  UNL1        0.0199
     15 O          63.8935   89.3350   13.0484 O.3     1  UNL1       -0.4714
     16 C          63.0765   90.2370   13.9252 C.3     1  UNL1        0.2485
     17 C          63.3788   89.6302   16.4333 C.3     1  UNL1        0.0513
     18 C          63.5654   90.5926   15.2981 C.3     1  UNL1        0.2094
     19 O          64.2409   91.9107   15.5355 O.3     1  UNL1       -0.4753
     20 C          65.7107   92.0579   15.2750 C.ar    1  UNL1        0.1386
     21 C          66.6087   92.6162   16.3388 C.ar    1  UNL1        0.0369
     22 C          68.0786   92.7635   16.0782 C.ar    1  UNL1        0.0031
     23 C          68.6504   92.3524   14.7538 C.ar    1  UNL1        0.0002
     24 C          67.7523   91.7940   13.6899 C.ar    1  UNL1        0.0031
     25 C          66.2825   91.6468   13.9505 C.ar    1  UNL1        0.0369
@<TRIPOS>BOND
     1    17    18    1
     2    18    16    1
     3    16    15    1
     4    15     1    1
     5     1     2   ar
     6     2     3   ar
     7     3     4   ar
     8     4     8    1
     9     8     9   ar
    10     9    10   ar
    11    10    11   ar
    12    11    12    1
    13    11    13   ar
    14    13    14   ar
    15     4     5   ar
    16     5     6    2
    17     5     7   ar
    18    18    19    1
    19    19    20    1
    20    20    21   ar
    21    21    22   ar
    22    22    23   ar
    23    23    24   ar
    24    24    25   ar
    25     7     1   ar
    26    25    20   ar
    27    14     8   ar
@<TRIPOS>MOLECULE
*****
 25 27 0 0 0
SMALL
GASTEIGER

@<TRIPOS>ATOM
      1 C          63.9190   88.8365   13.4889 C.ar    1  UNL1        0.1450
      2 C          63.1680   88.3049   12.3043 C.ar    1  UNL1        0.0561
      3 C          62.9161   86.8319   12.1754 C.ar    1  UNL1        0.0860
      4 N          63.4152   85.8904   13.2311 N.ar    1  UNL1       -0.2729
      5 C          64.1662   86.4220   14.4157 C.ar    1  UNL1        0.2679
      6 O          64.6653   85.4805   15.4714 O.2     1  UNL1       -0.2665
      7 C          64.4181   87.8950   14.5446 C.ar    1  UNL1        0.0980
      8 C          63.1632   84.4173   13.1021 C.ar    1  UNL1        0.0670
      9 C          63.6012   83.6868   11.8675 C.ar    1  UNL1        0.0199
     10 C          63.3493   82.2137   11.7385 C.ar    1  UNL1        0.0311
     11 C          62.6593   81.4712   12.8443 C.ar    1  UNL1        0.1402
     12 F          62.4074   79.9982   12.7154 F       1  UNL1       -0.2042
     13 C          62.2213   82.2018   14.0790 C.ar    1  UNL1        0.0311
     14 C          62.4733   83.6748   14.2079 C.ar    1  UNL1        0.0199
     15 O          64.1710   90.3096   13.6178 O.3     1  UNL1       -0.4714
     16 C          65.3763   90.8020   14.3627 C.3     1  UNL1        0.2485
     17 C          67.4597   92.3530   14.4238 C.3     1  UNL1        0.0513
     18 C          66.0887   92.0392   13.9024 C.3     1  UNL1        0.2094
     19 O          65.4301   92.9625   12.9207 O.3     1  UNL1       -0.4753
     20 C          66.1904   93.4499   11.7231 C.ar    1  UNL1        0.1386
     21 C          66.9395   92.4758   10.8630 C.ar    1  UNL1        0.0369
     22 C          67.6999   92.9631    9.6652 C.ar    1  UNL1        0.0031
     23 C          67.7110   94.4246    9.3277 C.ar    1  UNL1        0.0002
     24 C          66.9618   95.3987   10.1878 C.ar    1  UNL1        0.0031
     25 C          66.2015   94.9114   11.3855 C.ar    1  UNL1        0.0369
@<TRIPOS>BOND
     1    17    18    1
     2    18    16    1
     3    16    15    1
     4    15     1    1
     5     1     2   ar
     6     2     3   ar
     7     3     4   ar
     8     4     8    1
     9     8     9   ar
    10     9    10   ar
    11    10    11   ar
    12    11    12    1
    13    11    13   ar
    14    13    14   ar
    15     4     5   ar
    16     5     6    2
    17     5     7   ar
    18    18    19    1
    19    19    20    1
    20    20    21   ar
    21    21    22   ar
    22    22    23   ar
    23    23    24   ar
    24    24    25   ar
    25     7     1   ar
    26    25    20   ar
    27    14     8   ar
@<TRIPOS>MOLECULE
*****
 25 27 0 0 0
SMALL
GASTEIGER

@<TRIPOS>ATOM
      1 C          64.1807   88.0054   14.1321 C.ar    1  UNL1        0.1450
      2 C          64.5823   86.9684   15.1388 C.ar    1  UNL1        0.0561
      3 C          64.2565   85.5241   14.8984 C.ar    1  UNL1        0.0860
      4 N          63.5292   85.1168   13.6514 N.ar    1  UNL1       -0.2729
      5 C          63.1275   86.1538   12.6448 C.ar    1  UNL1        0.2679
      6 O          62.4002   85.7464   11.3978 O.2     1  UNL1       -0.2665
      7 C          63.4533   87.5981   12.8851 C.ar    1  UNL1        0.0980
      8 C          63.2034   83.6724   13.4111 C.ar    1  UNL1        0.0670
      9 C          63.7872   82.9587   12.2281 C.ar    1  UNL1        0.0199
     10 C          63.4615   81.5143   11.9877 C.ar    1  UNL1        0.0311
     11 C          62.5518   80.7837   12.9305 C.ar    1  UNL1        0.1402
     12 F          62.2261   79.3394   12.6903 F       1  UNL1       -0.2042
     13 C          61.9680   81.4975   14.1136 C.ar    1  UNL1        0.0311
     14 C          62.2938   82.9418   14.3539 C.ar    1  UNL1        0.0199
     15 O          64.5065   89.4498   14.3725 O.3     1  UNL1       -0.4714
     16 C          63.6027   90.5213   13.8387 C.3     1  UNL1        0.2485
     17 C          63.6543   91.0357   11.2926 C.3     1  UNL1        0.0513
     18 C          64.0536   91.3825   12.6962 C.3     1  UNL1        0.2094
     19 O          64.9037   92.5904   12.9575 O.3     1  UNL1       -0.4753
     20 C          66.1059   92.4830   13.8480 C.ar    1  UNL1        0.1386
     21 C          65.9970   92.8382   15.3012 C.ar    1  UNL1        0.0369
     22 C          67.1993   92.7308   16.1917 C.ar    1  UNL1        0.0031
     23 C          68.5105   92.2682   15.6290 C.ar    1  UNL1        0.0002
     24 C          68.6194   91.9130   14.1757 C.ar    1  UNL1        0.0031
     25 C          67.4172   92.0204   13.2852 C.ar    1  UNL1        0.0369
@<TRIPOS>BOND
     1    17    18    1
     2    18    16    1
     3    16    15    1
     4    15     1    1
     5     1     2   ar
     6     2     3   ar
     7     3     4   ar
     8     4     8    1
     9     8     9   ar
    10     9    10   ar
    11    10    11   ar
    12    11    12    1
    13    11    13   ar
    14    13    14   ar
    15     4     5   ar
    16     5     6    2
    17     5     7   ar
    18    18    19    1
    19    19    20    1
    20    20    21   ar
    21    21    22   ar
    22    22    23   ar
    23    23    24   ar
    24    24    25   ar
    25     7     1   ar
    26    25    20   ar
    27    14     8   ar
@<TRIPOS>MOLECULE
*****
 25 27 0 0 0
SMALL
GASTEIGER

@<TRIPOS>ATOM
      1 C          59.5880   88.6370    7.7870 C.ar    1  UNL1        0.1450
      2 C          59.4564   87.1772    7.4684 C.ar    1  UNL1        0.0561
      3 C          60.2949   86.1714    8.2000 C.ar    1  UNL1        0.0860
      4 N          61.2650   86.6255    9.2502 N.ar    1  UNL1       -0.2729
      5 C          61.3966   88.0853    9.5687 C.ar    1  UNL1        0.2679
      6 O          62.3667   88.5394   10.6188 O.2     1  UNL1       -0.2665
      7 C          60.5581   89.0911    8.8371 C.ar    1  UNL1        0.0980
      8 C          62.1036   85.6196    9.9818 C.ar    1  UNL1        0.0670
      9 C          63.0709   84.7577    9.2259 C.ar    1  UNL1        0.0199
     10 C          63.9094   83.7519    9.9575 C.ar    1  UNL1        0.0311
     11 C          63.7806   83.6080   11.4450 C.ar    1  UNL1        0.1402
     12 F          64.6191   82.6022   12.1766 F       1  UNL1       -0.2042
     13 C          62.8132   84.4699   12.2009 C.ar    1  UNL1        0.0311
     14 C          61.9748   85.4757   11.4693 C.ar    1  UNL1        0.0199
     15 O          58.7494   89.6429    7.0554 O.3     1  UNL1       -0.4714
     16 C          59.2550   90.2584    5.7844 C.3     1  UNL1        0.2485
     17 C          57.0174   91.2997    4.9725 C.3     1  UNL1        0.0513
     18 C          58.5042   91.3910    5.1490 C.3     1  UNL1        0.2094
     19 O          59.2402   92.6148    4.6902 O.3     1  UNL1       -0.4753
     20 C          60.1319   92.5463    3.4860 C.ar    1  UNL1        0.1386
     21 C          59.6052   92.9445    2.1392 C.ar    1  UNL1        0.0369
     22 C          60.4970   92.8761    0.9349 C.ar    1  UNL1        0.0031
     23 C          61.9154   92.4093    1.0776 C.ar    1  UNL1        0.0002
     24 C          62.4420   92.0111    2.4245 C.ar    1  UNL1        0.0031
     25 C          61.5503   92.0796    3.6287 C.ar    1  UNL1        0.0369
@<TRIPOS>BOND
     1    17    18    1
     2    18    16    1
     3    16    15    1
     4    15     1    1
     5     1     2   ar
     6     2     3   ar
     7     3     4   ar
     8     4     8    1
     9     8     9   ar
    10     9    10   ar
    11    10    11   ar
    12    11    12    1
    13    11    13   ar
    14    13    14   ar
    15     4     5   ar
    16     5     6    2
    17     5     7   ar
    18    18    19    1
    19    19    20    1
    20    20    21   ar
    21    21    22   ar
    22    22    23   ar
    23    23    24   ar
    24    24    25   ar
    25     7     1   ar
    26    25    20   ar
    27    14     8   ar
