@<TRIPOS>MOLECULE
*****
 32 36 0 0 0
SMALL
GASTEIGER

@<TRIPOS>ATOM
      1 C          63.9218   90.6873   12.6007 C.3     1  UNL1        0.2120
      2 O          63.1959   90.7576   11.2900 O.3     1  UNL1       -0.4344
      3 C          62.7293   89.3746   10.9438 C.2     1  UNL1        0.4089
      4 O          61.9603   88.9850    9.7163 O.2     1  UNL1       -0.2258
      5 N          63.1669   88.4498   12.0407 N.am    1  UNL1       -0.2164
      6 C          62.9894   86.9736   12.2393 C.ar    1  UNL1        0.0911
      7 C          62.2524   86.1623   11.2153 C.ar    1  UNL1        0.0194
      8 C          62.0750   84.6862   11.4139 C.ar    1  UNL1        0.0164
      9 C          62.6345   84.0213   12.6366 C.ar    1  UNL1        0.0571
     10 C          63.3714   84.8326   13.6606 C.ar    1  UNL1        0.0531
     11 C          63.5489   86.3087   13.4620 C.ar    1  UNL1        0.1535
     12 O          64.2859   87.1200   14.4860 O.3     1  UNL1       -0.4722
     13 C          64.4633   88.5962   14.2874 C.3     1  UNL1        0.2293
     14 C          63.9038   89.2610   13.0647 C.3     1  UNL1        0.1682
     15 N          62.4570   82.5451   12.8352 N.am    1  UNL1       -0.2539
     16 C          61.7110   82.0337   14.0318 C.3     1  UNL1        0.1303
     17 C          61.5335   80.5574   14.2304 C.3     1  UNL1        0.1646
     18 O          62.1021   79.5927   13.2323 O.3     1  UNL1       -0.3426
     19 C          62.8481   80.1042   12.0357 C.3     1  UNL1        0.2275
     20 C          63.0255   81.5804   11.8371 C.2     1  UNL1        0.2596
     21 O          63.7715   82.0919   10.6405 O.2     1  UNL1       -0.2718
     22 C          64.5546   91.8410   13.3211 C.3     1  UNL1        0.1355
     23 O          67.0614   92.0750   11.6899 O.2     1  UNL1       -0.2696
     24 C          66.1070   93.2296   11.7681 C.2     1  UNL1        0.2520
     25 N          64.8535   93.1125   12.5838 N.am    1  UNL1       -0.2971
     26 H          64.2271   93.8703   12.6352 H       1  UNL1        0.1499
     27 C          66.4060   94.5012   11.0308 C.ar    1  UNL1        0.0836
     28 C          66.1833   95.8922   11.5459 C.ar    1  UNL1        0.0124
     29 C          66.6199   96.8557   10.4824 C.ar    1  UNL1        0.0186
     30 C          67.1124   96.0601    9.3099 C.ar    1  UNL1        0.0871
     31 CL         67.6438   96.6212    8.0243 Cl      1  UNL1       -0.0752
     32 S          66.9802   94.6049    9.6490 S.2     1  UNL1       -0.0710
@<TRIPOS>BOND
     1    23    24    2
     2    24    25   am
     3    25    22    1
     4     1    22    1
     5     1     2    1
     6     2     3    1
     7     3     4    2
     8     3     5   am
     9     5     6    1
    10     6     7   ar
    11     7     8   ar
    12     8     9   ar
    13     9    15    1
    14    15    16    1
    15    16    17    1
    16    17    18    1
    17    18    19    1
    18    19    20    1
    19    20    21    2
    20     9    10   ar
    21    10    11   ar
    22    11    12    1
    23    12    13    1
    24    14    13    1
    25    24    27    1
    26    27    28   ar
    27    28    29   ar
    28    29    30   ar
    29    30    31    1
    30    30    32   ar
    31    14     1    1
    32    32    27   ar
    33    14     5    1
    34    11     6   ar
    35    20    15   am
    36    25    26    1
@<TRIPOS>MOLECULE
*****
 32 36 0 0 0
SMALL
GASTEIGER

@<TRIPOS>ATOM
      1 C          63.2907   90.3491   11.9835 C.3     1  UNL1        0.2120
      2 O          63.9940   90.3743   13.3081 O.3     1  UNL1       -0.4344
      3 C          64.0967   88.9629   13.8054 C.2     1  UNL1        0.4089
      4 O          64.7283   88.5257   15.0937 O.2     1  UNL1       -0.2258
      5 N          63.4567   88.0654   12.7881 N.am    1  UNL1       -0.2164
      6 C          63.2632   86.5786   12.7417 C.ar    1  UNL1        0.0911
      7 C          63.7613   85.7219   13.8677 C.ar    1  UNL1        0.0194
      8 C          63.5678   84.2352   13.8212 C.ar    1  UNL1        0.0164
      9 C          62.8762   83.6052   12.6487 C.ar    1  UNL1        0.0571
     10 C          62.3780   84.4618   11.5227 C.ar    1  UNL1        0.0531
     11 C          62.5716   85.9486   11.5692 C.ar    1  UNL1        0.1535
     12 O          62.0734   86.8053   10.4432 O.3     1  UNL1       -0.4722
     13 C          62.2669   88.2920   10.4896 C.3     1  UNL1        0.2293
     14 C          62.9586   88.9221   11.6621 C.3     1  UNL1        0.1682
     15 N          62.6827   82.1184   12.6023 N.am    1  UNL1       -0.2539
     16 C          62.0343   81.4101   13.7546 C.3     1  UNL1        0.1303
     17 C          61.8408   79.9233   13.7082 C.3     1  UNL1        0.1646
     18 O          62.2957   79.1449   12.5094 O.3     1  UNL1       -0.3426
     19 C          62.9441   79.8532   11.3570 C.3     1  UNL1        0.2275
     20 C          63.1376   81.3399   11.4035 C.2     1  UNL1        0.2596
     21 O          63.7860   82.0483   10.2511 O.2     1  UNL1       -0.2718
     22 C          62.9748   91.5416   11.1300 C.3     1  UNL1        0.1355
     23 O          65.1997   92.9972   12.5194 O.2     1  UNL1       -0.2696
     24 C          65.1713   92.9250   11.0214 C.2     1  UNL1        0.2520
     25 N          64.0587   92.1971   10.3267 N.am    1  UNL1       -0.2971
     26 H          64.0399   92.1496    9.3435 H       1  UNL1        0.1499
     27 C          66.2552   93.5805   10.2181 C.ar    1  UNL1        0.0836
     28 C          67.5339   92.9361    9.7714 C.ar    1  UNL1        0.0124
     29 C          68.3198   93.9528    8.9978 C.ar    1  UNL1        0.0186
     30 C          67.5268   95.2258    8.9664 C.ar    1  UNL1        0.0871
     31 CL         67.9377   96.5043    8.2981 Cl      1  UNL1       -0.0752
     32 S          66.2508   94.9955    9.7207 S.2     1  UNL1       -0.0710
@<TRIPOS>BOND
     1    23    24    2
     2    24    25   am
     3    25    22    1
     4     1    22    1
     5     1     2    1
     6     2     3    1
     7     3     4    2
     8     3     5   am
     9     5     6    1
    10     6     7   ar
    11     7     8   ar
    12     8     9   ar
    13     9    15    1
    14    15    16    1
    15    16    17    1
    16    17    18    1
    17    18    19    1
    18    19    20    1
    19    20    21    2
    20     9    10   ar
    21    10    11   ar
    22    11    12    1
    23    12    13    1
    24    14    13    1
    25    24    27    1
    26    27    28   ar
    27    28    29   ar
    28    29    30   ar
    29    30    31    1
    30    30    32   ar
    31    14     1    1
    32    32    27   ar
    33    14     5    1
    34    11     6   ar
    35    20    15   am
    36    25    26    1
@<TRIPOS>MOLECULE
*****
 32 36 0 0 0
SMALL
GASTEIGER

@<TRIPOS>ATOM
      1 C          60.3007   88.1963    9.0225 C.3     1  UNL1        0.2120
      2 O          60.3484   86.8825    9.7447 O.3     1  UNL1       -0.4344
      3 C          61.2769   87.0295   10.9136 C.2     1  UNL1        0.4089
      4 O          61.6191   85.9596   11.9077 O.2     1  UNL1       -0.2258
      5 N          61.8030   88.4341   10.9138 N.am    1  UNL1       -0.2164
      6 C          62.7535   89.1497   11.8273 C.ar    1  UNL1        0.0911
      7 C          63.3568   88.4286   12.9960 C.ar    1  UNL1        0.0194
      8 C          64.3073   89.1442   13.9095 C.ar    1  UNL1        0.0164
      9 C          64.6545   90.5809   13.6542 C.ar    1  UNL1        0.0571
     10 C          64.0513   91.3021   12.4855 C.ar    1  UNL1        0.0531
     11 C          63.1008   90.5865   11.5721 C.ar    1  UNL1        0.1535
     12 O          62.4974   91.3077   10.4033 O.3     1  UNL1       -0.4722
     13 C          61.5469   90.5921    9.4898 C.3     1  UNL1        0.2293
     14 C          61.1997   89.1553    9.7451 C.3     1  UNL1        0.1682
     15 N          65.6051   91.2965   14.5677 N.am    1  UNL1       -0.2539
     16 C          67.0571   91.4015   14.2062 C.3     1  UNL1        0.1303
     17 C          68.0076   92.1171   15.1197 C.3     1  UNL1        0.1646
     18 O          67.5062   92.7276   16.3947 O.3     1  UNL1       -0.3426
     19 C          66.0541   92.6226   16.7563 C.3     1  UNL1        0.2275
     20 C          65.1036   91.9071   15.8428 C.2     1  UNL1        0.2596
     21 O          63.6516   91.8020   16.2043 O.2     1  UNL1       -0.2718
     22 C          59.4953   88.4982    7.7935 C.3     1  UNL1        0.1355
     23 O          57.6343   90.1654    6.1330 O.2     1  UNL1       -0.2696
     24 C          59.1156   90.2496    5.9124 C.2     1  UNL1        0.2520
     25 N          60.0461   89.4160    6.7427 N.am    1  UNL1       -0.2971
     26 H          61.0184   89.4712    6.5980 H       1  UNL1        0.1499
     27 C          59.6664   91.1674    4.8616 C.ar    1  UNL1        0.0836
     28 C          58.8908   92.1998    4.0983 C.ar    1  UNL1        0.0124
     29 C          59.8345   92.8844    3.1545 C.ar    1  UNL1        0.0186
     30 C          61.1933   92.2751    3.3345 C.ar    1  UNL1        0.0871
     31 CL         62.4376   92.6595    2.5901 Cl      1  UNL1       -0.0752
     32 S          61.0893   91.2139    4.3895 S.2     1  UNL1       -0.0710
@<TRIPOS>BOND
     1    23    24    2
     2    24    25   am
     3    25    22    1
     4     1    22    1
     5     1     2    1
     6     2     3    1
     7     3     4    2
     8     3     5   am
     9     5     6    1
    10     6     7   ar
    11     7     8   ar
    12     8     9   ar
    13     9    15    1
    14    15    16    1
    15    16    17    1
    16    17    18    1
    17    18    19    1
    18    19    20    1
    19    20    21    2
    20     9    10   ar
    21    10    11   ar
    22    11    12    1
    23    12    13    1
    24    14    13    1
    25    24    27    1
    26    27    28   ar
    27    28    29   ar
    28    29    30   ar
    29    30    31    1
    30    30    32   ar
    31    14     1    1
    32    32    27   ar
    33    14     5    1
    34    11     6   ar
    35    20    15   am
    36    25    26    1
@<TRIPOS>MOLECULE
*****
 32 36 0 0 0
SMALL
GASTEIGER

@<TRIPOS>ATOM
      1 C          62.9703   90.6213   11.3402 C.3     1  UNL1        0.2120
      2 O          62.1668   90.4621   10.0836 O.3     1  UNL1       -0.4344
      3 C          61.8404   89.0068    9.9233 C.2     1  UNL1        0.4089
      4 O          61.0509   88.3986    8.8023 O.2     1  UNL1       -0.2258
      5 N          62.4422   88.2667   11.0809 N.am    1  UNL1       -0.2164
      6 C          62.4445   86.8129   11.4506 C.ar    1  UNL1        0.0911
      7 C          61.7462   85.8152   10.5750 C.ar    1  UNL1        0.0194
      8 C          61.7486   84.3615   10.9448 C.ar    1  UNL1        0.0164
      9 C          62.4492   83.9056   12.1903 C.ar    1  UNL1        0.0571
     10 C          63.1475   84.9033   13.0659 C.ar    1  UNL1        0.0531
     11 C          63.1452   86.3570   12.6961 C.ar    1  UNL1        0.1535
     12 O          63.8435   87.3548   13.5718 O.3     1  UNL1       -0.4722
     13 C          63.8411   88.8085   13.2020 C.3     1  UNL1        0.2293
     14 C          63.1405   89.2644   11.9565 C.3     1  UNL1        0.1682
     15 N          62.4515   82.4518   12.5601 N.am    1  UNL1       -0.2539
     16 C          61.8910   82.0129   13.8803 C.3     1  UNL1        0.1303
     17 C          61.8933   80.5591   14.2501 C.3     1  UNL1        0.1646
     18 O          62.4562   79.5444   13.2996 O.3     1  UNL1       -0.3426
     19 C          63.0168   79.9834   11.9793 C.3     1  UNL1        0.2275
     20 C          63.0144   81.4371   11.6095 C.2     1  UNL1        0.2596
     21 O          63.5750   81.8761   10.2893 O.2     1  UNL1       -0.2718
     22 C          63.5090   91.9110   11.8849 C.3     1  UNL1        0.1355
     23 O          65.9560   93.6384   11.7174 O.2     1  UNL1       -0.2696
     24 C          65.7406   92.7569   12.9117 C.2     1  UNL1        0.2520
     25 N          64.5171   91.8931   12.9954 N.am    1  UNL1       -0.2971
     26 H          64.3757   91.3145   13.7793 H       1  UNL1        0.1499
     27 C          66.7488   92.7390   14.0223 C.ar    1  UNL1        0.0836
     28 C          67.2055   91.5271   14.7790 C.ar    1  UNL1        0.0124
     29 C          68.2162   91.9690   15.7955 C.ar    1  UNL1        0.0186
     30 C          68.3840   93.4541   15.6670 C.ar    1  UNL1        0.0871
     31 CL         69.2983   94.3125   16.4899 Cl      1  UNL1       -0.0752
     32 S          67.4771   93.9299   14.5711 S.2     1  UNL1       -0.0710
@<TRIPOS>BOND
     1    23    24    2
     2    24    25   am
     3    25    22    1
     4     1    22    1
     5     1     2    1
     6     2     3    1
     7     3     4    2
     8     3     5   am
     9     5     6    1
    10     6     7   ar
    11     7     8   ar
    12     8     9   ar
    13     9    15    1
    14    15    16    1
    15    16    17    1
    16    17    18    1
    17    18    19    1
    18    19    20    1
    19    20    21    2
    20     9    10   ar
    21    10    11   ar
    22    11    12    1
    23    12    13    1
    24    14    13    1
    25    24    27    1
    26    27    28   ar
    27    28    29   ar
    28    29    30   ar
    29    30    31    1
    30    30    32   ar
    31    14     1    1
    32    32    27   ar
    33    14     5    1
    34    11     6   ar
    35    20    15   am
    36    25    26    1
@<TRIPOS>MOLECULE
*****
 32 36 0 0 0
SMALL
GASTEIGER

@<TRIPOS>ATOM
      1 C          63.4924   89.5962   16.2224 C.3     1  UNL1        0.2120
      2 O          64.0337   90.5542   17.2418 O.3     1  UNL1       -0.4344
      3 C          64.7128   91.6742   16.5108 C.2     1  UNL1        0.4089
      4 O          65.3940   92.8530   17.1404 O.2     1  UNL1       -0.2258
      5 N          64.5912   91.4083   15.0396 N.am    1  UNL1       -0.2164
      6 C          65.0698   92.1698   13.8391 C.ar    1  UNL1        0.0911
      7 C          65.8241   93.4541   14.0173 C.ar    1  UNL1        0.0194
      8 C          66.3027   94.2155   12.8169 C.ar    1  UNL1        0.0164
      9 C          66.0271   93.6927   11.4382 C.ar    1  UNL1        0.0571
     10 C          65.2728   92.4085   11.2600 C.ar    1  UNL1        0.0531
     11 C          64.7942   91.6470   12.4604 C.ar    1  UNL1        0.1535
     12 O          64.0399   90.3627   12.2822 O.3     1  UNL1       -0.4722
     13 C          63.5613   89.6013   13.4827 C.3     1  UNL1        0.2293
     14 C          63.8369   90.1241   14.8613 C.3     1  UNL1        0.1682
     15 N          66.5058   94.4542   10.2377 N.am    1  UNL1       -0.2539
     16 C          65.9675   95.8256    9.9559 C.3     1  UNL1        0.1303
     17 C          66.4462   96.5871    8.7554 C.3     1  UNL1        0.1646
     18 O          67.4631   95.9771    7.8368 O.3     1  UNL1       -0.3426
     19 C          68.0014   94.6056    8.1187 C.3     1  UNL1        0.2275
     20 C          67.5227   93.8442    9.3192 C.2     1  UNL1        0.2596
     21 O          68.0610   92.4727    9.6011 O.2     1  UNL1       -0.2718
     22 C          62.7387   88.3322   16.5131 C.3     1  UNL1        0.1355
     23 O          62.0913   85.6445   17.6781 O.2     1  UNL1       -0.2696
     24 C          62.7126   85.7417   16.3162 C.2     1  UNL1        0.2520
     25 N          63.0363   87.0856   15.7338 N.am    1  UNL1       -0.2971
     26 H          63.4441   87.1495   14.8400 H       1  UNL1        0.1499
     27 C          63.0102   84.4951   15.5369 C.ar    1  UNL1        0.0836
     28 C          64.3458   84.1019   14.9790 C.ar    1  UNL1        0.0124
     29 C          64.1855   82.7866   14.2759 C.ar    1  UNL1        0.0186
     30 C          62.7506   82.3669   14.3994 C.ar    1  UNL1        0.0871
     31 CL         62.1481   81.1116   13.8415 Cl      1  UNL1       -0.0752
     32 S          62.0243   83.4229   15.1787 S.2     1  UNL1       -0.0710
@<TRIPOS>BOND
     1    23    24    2
     2    24    25   am
     3    25    22    1
     4     1    22    1
     5     1     2    1
     6     2     3    1
     7     3     4    2
     8     3     5   am
     9     5     6    1
    10     6     7   ar
    11     7     8   ar
    12     8     9   ar
    13     9    15    1
    14    15    16    1
    15    16    17    1
    16    17    18    1
    17    18    19    1
    18    19    20    1
    19    20    21    2
    20     9    10   ar
    21    10    11   ar
    22    11    12    1
    23    12    13    1
    24    14    13    1
    25    24    27    1
    26    27    28   ar
    27    28    29   ar
    28    29    30   ar
    29    30    31    1
    30    30    32   ar
    31    14     1    1
    32    32    27   ar
    33    14     5    1
    34    11     6   ar
    35    20    15   am
    36    25    26    1
@<TRIPOS>MOLECULE
*****
 32 36 0 0 0
SMALL
GASTEIGER

@<TRIPOS>ATOM
      1 C          63.5658   89.4133   16.3646 C.3     1  UNL1        0.2120
      2 O          63.1567   88.7844   17.6635 O.3     1  UNL1       -0.4344
      3 C          62.9299   87.3219   17.4193 C.2     1  UNL1        0.4089
      4 O          62.5083   86.3117   18.4448 O.2     1  UNL1       -0.2258
      5 N          63.1988   87.0470   15.9695 N.am    1  UNL1       -0.2164
      6 C          63.1366   85.7865   15.1586 C.ar    1  UNL1        0.0911
      7 C          62.7436   84.4940   15.8104 C.ar    1  UNL1        0.0194
      8 C          62.6814   83.2337   14.9995 C.ar    1  UNL1        0.0164
      9 C          63.0121   83.2658   13.5368 C.ar    1  UNL1        0.0571
     10 C          63.4051   84.5584   12.8849 C.ar    1  UNL1        0.0531
     11 C          63.4673   85.8187   13.6958 C.ar    1  UNL1        0.1535
     12 O          63.8603   87.1113   13.0440 O.3     1  UNL1       -0.4722
     13 C          63.9225   88.3717   13.8549 C.3     1  UNL1        0.2293
     14 C          63.5918   88.3395   15.3176 C.3     1  UNL1        0.1682
     15 N          62.9499   82.0054   12.7258 N.am    1  UNL1       -0.2539
     16 C          62.5648   80.7114   13.3794 C.3     1  UNL1        0.1303
     17 C          62.5026   79.4509   12.5685 C.3     1  UNL1        0.1646
     18 O          62.8254   79.4846   11.1040 O.3     1  UNL1       -0.3426
     19 C          63.2105   80.7787   10.4505 C.3     1  UNL1        0.2275
     20 C          63.2727   82.0391   11.2614 C.2     1  UNL1        0.2596
     21 O          63.6578   83.3332   10.6078 O.2     1  UNL1       -0.2718
     22 C          63.8916   90.8618   16.1503 C.3     1  UNL1        0.1355
     23 O          66.5902   91.6601   15.1110 O.2     1  UNL1       -0.2696
     24 C          65.3786   91.8006   14.2378 C.2     1  UNL1        0.2520
     25 N          64.0292   91.4014   14.7576 N.am    1  UNL1       -0.2971
     26 H          63.2340   91.4935   14.1846 H       1  UNL1        0.1499
     27 C          65.5163   92.3402   12.8451 C.ar    1  UNL1        0.0836
     28 C          64.7049   91.9240   11.6541 C.ar    1  UNL1        0.0124
     29 C          65.1766   92.7173   10.4717 C.ar    1  UNL1        0.0186
     30 C          66.2797   93.6238   10.9319 C.ar    1  UNL1        0.0871
     31 CL         67.0394   94.5931   10.0756 Cl      1  UNL1       -0.0752
     32 S          66.4895   93.3906   12.3988 S.2     1  UNL1       -0.0710
@<TRIPOS>BOND
     1    23    24    2
     2    24    25   am
     3    25    22    1
     4     1    22    1
     5     1     2    1
     6     2     3    1
     7     3     4    2
     8     3     5   am
     9     5     6    1
    10     6     7   ar
    11     7     8   ar
    12     8     9   ar
    13     9    15    1
    14    15    16    1
    15    16    17    1
    16    17    18    1
    17    18    19    1
    18    19    20    1
    19    20    21    2
    20     9    10   ar
    21    10    11   ar
    22    11    12    1
    23    12    13    1
    24    14    13    1
    25    24    27    1
    26    27    28   ar
    27    28    29   ar
    28    29    30   ar
    29    30    31    1
    30    30    32   ar
    31    14     1    1
    32    32    27   ar
    33    14     5    1
    34    11     6   ar
    35    20    15   am
    36    25    26    1
@<TRIPOS>MOLECULE
*****
 32 36 0 0 0
SMALL
GASTEIGER

@<TRIPOS>ATOM
      1 C          72.5250   79.6998   13.1458 C.3     1  UNL1        0.2120
      2 O          72.9122   79.7864   14.5924 O.3     1  UNL1       -0.4344
      3 C          72.9080   78.3969   15.1574 C.2     1  UNL1        0.4089
      4 O          73.2361   78.0190   16.5714 O.2     1  UNL1       -0.2258
      5 N          72.5183   77.4515   14.0599 N.am    1  UNL1       -0.2164
      6 C          72.3483   75.9614   14.0321 C.ar    1  UNL1        0.0911
      7 C          72.5851   75.1562   15.2753 C.ar    1  UNL1        0.0194
      8 C          72.4152   73.6661   15.2474 C.ar    1  UNL1        0.0164
      9 C          72.0085   72.9813   13.9763 C.ar    1  UNL1        0.0571
     10 C          71.7717   73.7865   12.7331 C.ar    1  UNL1        0.0531
     11 C          71.9417   75.2766   12.7610 C.ar    1  UNL1        0.1535
     12 O          71.7049   76.0819   11.5178 O.3     1  UNL1       -0.4722
     13 C          71.8748   77.5719   11.5457 C.3     1  UNL1        0.2293
     14 C          72.2815   78.2568   12.8168 C.3     1  UNL1        0.1682
     15 N          71.8386   71.4912   13.9485 N.am    1  UNL1       -0.2539
     16 C          72.9591   70.6000   14.3958 C.3     1  UNL1        0.1303
     17 C          72.7892   69.1099   14.3679 C.3     1  UNL1        0.1646
     18 O          71.4987   68.5110   13.8927 O.3     1  UNL1       -0.3426
     19 C          70.3781   69.4022   13.4454 C.3     1  UNL1        0.2275
     20 C          70.5480   70.8922   13.4733 C.2     1  UNL1        0.2596
     21 O          69.4274   71.7835   13.0259 O.2     1  UNL1       -0.2718
     22 C          72.4027   80.8537   12.1952 C.3     1  UNL1        0.1355
     23 O          72.1551   83.1613   10.2943 O.2     1  UNL1       -0.2696
     24 C          72.0991   81.7544    9.7772 C.2     1  UNL1        0.2520
     25 N          72.2229   80.6006   10.7277 N.am    1  UNL1       -0.2971
     26 H          72.1861   79.6771   10.3884 H       1  UNL1        0.1499
     27 C          71.9193   81.5013    8.3097 C.ar    1  UNL1        0.0836
     28 C          71.9472   82.5383    7.2263 C.ar    1  UNL1        0.0124
     29 C          71.7251   81.8448    5.9150 C.ar    1  UNL1        0.0186
     30 C          71.5600   80.3790    6.1879 C.ar    1  UNL1        0.0871
     31 CL         71.3175   79.3128    5.1611 Cl      1  UNL1       -0.0752
     32 S          71.6800   80.1669    7.6680 S.2     1  UNL1       -0.0710
@<TRIPOS>BOND
     1    23    24    2
     2    24    25   am
     3    25    22    1
     4     1    22    1
     5     1     2    1
     6     2     3    1
     7     3     4    2
     8     3     5   am
     9     5     6    1
    10     6     7   ar
    11     7     8   ar
    12     8     9   ar
    13     9    15    1
    14    15    16    1
    15    16    17    1
    16    17    18    1
    17    18    19    1
    18    19    20    1
    19    20    21    2
    20     9    10   ar
    21    10    11   ar
    22    11    12    1
    23    12    13    1
    24    14    13    1
    25    24    27    1
    26    27    28   ar
    27    28    29   ar
    28    29    30   ar
    29    30    31    1
    30    30    32   ar
    31    14     1    1
    32    32    27   ar
    33    14     5    1
    34    11     6   ar
    35    20    15   am
    36    25    26    1
@<TRIPOS>MOLECULE
*****
 32 36 0 0 0
SMALL
GASTEIGER

@<TRIPOS>ATOM
      1 C          59.5955   89.1332    7.0320 C.3     1  UNL1        0.2120
      2 O          59.2860   87.7878    6.4455 O.3     1  UNL1       -0.4344
      3 C          59.8483   86.7421    7.3623 C.2     1  UNL1        0.4089
      4 O          59.7677   85.2578    7.1612 O.2     1  UNL1       -0.2258
      5 N          60.5052   87.4413    8.5152 N.am    1  UNL1       -0.2164
      6 C          61.2256   86.9231    9.7247 C.ar    1  UNL1        0.0911
      7 C          61.3818   85.4453    9.9288 C.ar    1  UNL1        0.0194
      8 C          62.1021   84.9273   11.1382 C.ar    1  UNL1        0.0164
      9 C          62.6662   85.8870   12.1435 C.ar    1  UNL1        0.0571
     10 C          62.5100   87.3648   11.9394 C.ar    1  UNL1        0.0531
     11 C          61.7897   87.8828   10.7300 C.ar    1  UNL1        0.1535
     12 O          61.6335   89.3607   10.5259 O.3     1  UNL1       -0.4722
     13 C          60.9132   89.8788    9.3165 C.3     1  UNL1        0.2293
     14 C          60.3490   88.9191    8.3112 C.3     1  UNL1        0.1682
     15 N          63.3866   85.3689   13.3530 N.am    1  UNL1       -0.2539
     16 C          63.4017   83.8974   13.6438 C.3     1  UNL1        0.1303
     17 C          64.1221   83.3793   14.8532 C.3     1  UNL1        0.1646
     18 O          64.8273   84.3327   15.7718 O.3     1  UNL1       -0.3426
     19 C          64.8121   85.8042   15.4809 C.3     1  UNL1        0.2275
     20 C          64.0918   86.3222   14.2715 C.2     1  UNL1        0.2596
     21 O          64.0766   87.7937   13.9807 O.2     1  UNL1       -0.2718
     22 C          59.2177   90.4600    6.4428 C.3     1  UNL1        0.1355
     23 O          57.9556   92.3330    4.4683 O.2     1  UNL1       -0.2696
     24 C          59.4108   91.9884    4.3507 C.2     1  UNL1        0.2520
     25 N          60.0418   91.0518    5.3380 N.am    1  UNL1       -0.2971
     26 H          60.9969   90.8256    5.2609 H       1  UNL1        0.1499
     27 C          60.2348   92.5803    3.2459 C.ar    1  UNL1        0.0836
     28 C          59.7324   93.4808    2.1566 C.ar    1  UNL1        0.0124
     29 C          60.8930   93.8327    1.2739 C.ar    1  UNL1        0.0186
     30 C          62.1128   93.1496    1.8177 C.ar    1  UNL1        0.0871
     31 CL         63.4963   93.2269    1.2435 Cl      1  UNL1       -0.0752
     32 S          61.7059   92.3756    3.0365 S.2     1  UNL1       -0.0710
@<TRIPOS>BOND
     1    23    24    2
     2    24    25   am
     3    25    22    1
     4     1    22    1
     5     1     2    1
     6     2     3    1
     7     3     4    2
     8     3     5   am
     9     5     6    1
    10     6     7   ar
    11     7     8   ar
    12     8     9   ar
    13     9    15    1
    14    15    16    1
    15    16    17    1
    16    17    18    1
    17    18    19    1
    18    19    20    1
    19    20    21    2
    20     9    10   ar
    21    10    11   ar
    22    11    12    1
    23    12    13    1
    24    14    13    1
    25    24    27    1
    26    27    28   ar
    27    28    29   ar
    28    29    30   ar
    29    30    31    1
    30    30    32   ar
    31    14     1    1
    32    32    27   ar
    33    14     5    1
    34    11     6   ar
    35    20    15   am
    36    25    26    1
@<TRIPOS>MOLECULE
*****
 32 36 0 0 0
SMALL
GASTEIGER

@<TRIPOS>ATOM
      1 C          59.7535   89.5738    7.8114 C.3     1  UNL1        0.2120
      2 O          60.0187   90.5195    8.9451 O.3     1  UNL1       -0.4344
      3 C          60.6613   89.7428   10.0559 C.2     1  UNL1        0.4089
      4 O          61.0957   90.2949   11.3812 O.2     1  UNL1       -0.2258
      5 N          60.7932   88.3171    9.6087 N.am    1  UNL1       -0.2164
      6 C          61.3517   87.1005   10.2855 C.ar    1  UNL1        0.0911
      7 C          61.9127   87.2050   11.6727 C.ar    1  UNL1        0.0194
      8 C          62.4712   85.9885   12.3494 C.ar    1  UNL1        0.0164
      9 C          62.4687   84.6674   11.6389 C.ar    1  UNL1        0.0571
     10 C          61.9077   84.5629   10.2518 C.ar    1  UNL1        0.0531
     11 C          61.3492   85.7795    9.5751 C.ar    1  UNL1        0.1535
     12 O          60.7881   85.6750    8.1878 O.3     1  UNL1       -0.4722
     13 C          60.2296   86.8916    7.5111 C.3     1  UNL1        0.2293
     14 C          60.2322   88.2126    8.2215 C.3     1  UNL1        0.1682
     15 N          63.0272   83.4508   12.3157 N.am    1  UNL1       -0.2539
     16 C          62.4423   82.9799   13.6142 C.3     1  UNL1        0.1303
     17 C          63.0008   81.7633   14.2910 C.3     1  UNL1        0.1646
     18 O          64.1443   81.0176   13.6693 O.3     1  UNL1       -0.3426
     19 C          64.7292   81.4886   12.3707 C.3     1  UNL1        0.2275
     20 C          64.1706   82.7051   11.6940 C.2     1  UNL1        0.2596
     21 O          64.7555   83.1761   10.3954 O.2     1  UNL1       -0.2718
     22 C          59.1207   89.9271    6.4980 C.3     1  UNL1        0.1355
     23 O          58.0976   92.2730    4.9328 O.2     1  UNL1       -0.2696
     24 C          59.4423   91.6889    4.6158 C.2     1  UNL1        0.2520
     25 N          59.9539   90.5159    5.3985 N.am    1  UNL1       -0.2971
     26 H          60.8365   90.1325    5.1905 H       1  UNL1        0.1499
     27 C          60.2755   92.2777    3.5162 C.ar    1  UNL1        0.0836
     28 C          59.7895   93.2046    2.4416 C.ar    1  UNL1        0.0124
     29 C          60.9545   93.5428    1.5594 C.ar    1  UNL1        0.0186
     30 C          62.1606   92.8250    2.0888 C.ar    1  UNL1        0.0871
     31 CL         63.5435   92.8795    1.5104 Cl      1  UNL1       -0.0752
     32 S          61.7408   92.0432    3.2982 S.2     1  UNL1       -0.0710
@<TRIPOS>BOND
     1    23    24    2
     2    24    25   am
     3    25    22    1
     4     1    22    1
     5     1     2    1
     6     2     3    1
     7     3     4    2
     8     3     5   am
     9     5     6    1
    10     6     7   ar
    11     7     8   ar
    12     8     9   ar
    13     9    15    1
    14    15    16    1
    15    16    17    1
    16    17    18    1
    17    18    19    1
    18    19    20    1
    19    20    21    2
    20     9    10   ar
    21    10    11   ar
    22    11    12    1
    23    12    13    1
    24    14    13    1
    25    24    27    1
    26    27    28   ar
    27    28    29   ar
    28    29    30   ar
    29    30    31    1
    30    30    32   ar
    31    14     1    1
    32    32    27   ar
    33    14     5    1
    34    11     6   ar
    35    20    15   am
    36    25    26    1
