@<TRIPOS>MOLECULE
*****
 30 34 0 0 0
SMALL
GASTEIGER

@<TRIPOS>ATOM
      1 O          63.1321   89.5466   14.7873 O.3     1  UNL1       -0.4630
      2 C          66.7167   93.0569   13.4352 C.3     1  UNL1        0.0308
      3 C          65.5445   92.1927   13.0761 C.ar    1  UNL1       -0.0231
      4 C          64.9244   91.3017   14.1113 C.ar    1  UNL1        0.0324
      5 C          63.7521   90.4375   13.7521 C.ar    1  UNL1        0.1402
      6 C          63.2000   90.4642   12.3577 C.ar    1  UNL1        0.0479
      7 C          63.8201   91.3552   11.3224 C.ar    1  UNL1       -0.0171
      8 C          64.9924   92.2194   11.6816 C.ar    1  UNL1       -0.0292
      9 C          65.6124   93.1103   10.6463 C.3     1  UNL1        0.0304
     10 C          63.0649   91.1705   10.0396 C.3     1  UNL1        0.0606
     11 C          61.9780   90.1655   10.2820 C.ar    1  UNL1        0.0308
     12 S          60.8396   89.4304    9.6390 S.2     1  UNL1       -0.0685
     13 C          60.2196   88.5394   10.6743 C.ar    1  UNL1        0.1342
     14 N          60.9747   88.7240   11.9571 N.ar    1  UNL1       -0.2365
     15 C          62.0616   89.7290   11.7147 C.ar    1  UNL1        0.0868
     16 C          63.9297   88.4277   15.3889 C.3     1  UNL1        0.3201
     17 P          63.6491   87.0087   14.9918 P.3     1  UNL1        0.3872
     18 O          64.2306   87.5277   13.7102 O.2     1  UNL1       -0.2539
     19 O          63.1652   86.9824   16.4113 O.3     1  UNL1       -0.2916
     20 C          62.6026   85.7175   16.9886 C.3     1  UNL1        0.1543
     21 C          62.5239   84.4787   16.1464 C.3     1  UNL1        0.0672
     22 C          63.0079   84.5049   14.7269 C.3     1  UNL1        0.1488
     23 O          63.5705   85.7700   14.1496 O.3     1  UNL1       -0.2896
     24 C          62.9293   83.2662   13.8846 C.ar    1  UNL1        0.0052
     25 C          62.2171   82.0515   14.4019 C.ar    1  UNL1       -0.0011
     26 C          62.1385   80.8128   13.5596 C.ar    1  UNL1        0.0111
     27 C          62.7719   80.7887   12.2002 C.ar    1  UNL1        0.0577
     28 CL         62.6933   79.5500   11.3580 Cl      1  UNL1       -0.0822
     29 C          63.4841   82.0033   11.6830 C.ar    1  UNL1        0.0111
     30 C          63.5627   83.2420   12.5253 C.ar    1  UNL1       -0.0011
@<TRIPOS>BOND
     1     2     3    1
     2     3     4   ar
     3     4     5   ar
     4     5     1    1
     5     1    16    1
     6    17    16    1
     7    17    18    2
     8    17    19    1
     9    19    20    1
    10    20    21    1
    11    21    22    1
    12    22    24    1
    13    24    25   ar
    14    25    26   ar
    15    26    27   ar
    16    27    28    1
    17    27    29   ar
    18    29    30   ar
    19    22    23    1
    20     5     6   ar
    21     6     7   ar
    22     7     8   ar
    23     8     9    1
    24     7    10    1
    25    10    11    1
    26    11    12   ar
    27    12    13   ar
    28    13    14   ar
    29    14    15   ar
    30     8     3   ar
    31    15    11   ar
    32    23    17    1
    33    15     6    1
    34    30    24   ar
@<TRIPOS>MOLECULE
*****
 30 34 0 0 0
SMALL
GASTEIGER

@<TRIPOS>ATOM
      1 O          62.5303   84.9847   15.0492 O.3     1  UNL1       -0.4630
      2 C          63.1248   80.0005   13.7060 C.3     1  UNL1        0.0308
      3 C          62.9529   81.4390   13.3173 C.ar    1  UNL1       -0.0231
      4 C          62.8275   82.4927   14.3777 C.ar    1  UNL1        0.0324
      5 C          62.6556   83.9312   13.9889 C.ar    1  UNL1        0.1402
      6 C          62.6090   84.3161   12.5399 C.ar    1  UNL1        0.0479
      7 C          62.7344   83.2625   11.4796 C.ar    1  UNL1       -0.0171
      8 C          62.9063   81.8240   11.8683 C.ar    1  UNL1       -0.0292
      9 C          63.0316   80.7705   10.8079 C.3     1  UNL1        0.0304
     10 C          62.6531   83.9383   10.1429 C.3     1  UNL1        0.0606
     11 C          62.4775   85.4094   10.3770 C.ar    1  UNL1        0.0308
     12 S          62.3188   86.7363    9.6956 S.2     1  UNL1       -0.0685
     13 C          62.1935   87.7898   10.7560 C.ar    1  UNL1        0.1342
     14 N          62.2748   87.1141   12.0927 N.ar    1  UNL1       -0.2365
     15 C          62.4503   85.6430   11.8585 C.ar    1  UNL1        0.0868
     16 C          63.7577   85.6636   15.5808 C.3     1  UNL1        0.3201
     17 P          64.0490   87.0868   15.2070 P.3     1  UNL1        0.3872
     18 O          64.8008   86.3736   14.1225 O.2     1  UNL1       -0.2539
     19 O          63.1960   87.3058   16.4214 O.3     1  UNL1       -0.2916
     20 C          62.8955   88.7002   16.8852 C.3     1  UNL1        0.1543
     21 C          63.4479   89.8757   16.1348 C.3     1  UNL1        0.0672
     22 C          64.3008   89.6568   14.9205 C.3     1  UNL1        0.1488
     23 O          64.6014   88.2623   14.4566 O.3     1  UNL1       -0.2896
     24 C          64.8532   90.8322   14.1701 C.ar    1  UNL1        0.0052
     25 C          65.9383   91.6690   14.7804 C.ar    1  UNL1       -0.0011
     26 C          66.4906   92.8445   14.0300 C.ar    1  UNL1        0.0111
     27 C          65.9581   93.1832   12.6693 C.ar    1  UNL1        0.0577
     28 CL         66.5105   94.3586   11.9189 Cl      1  UNL1       -0.0822
     29 C          64.8730   92.3464   12.0589 C.ar    1  UNL1        0.0111
     30 C          64.3206   91.1709   12.8094 C.ar    1  UNL1       -0.0011
@<TRIPOS>BOND
     1     2     3    1
     2     3     4   ar
     3     4     5   ar
     4     5     1    1
     5     1    16    1
     6    17    16    1
     7    17    18    2
     8    17    19    1
     9    19    20    1
    10    20    21    1
    11    21    22    1
    12    22    24    1
    13    24    25   ar
    14    25    26   ar
    15    26    27   ar
    16    27    28    1
    17    27    29   ar
    18    29    30   ar
    19    22    23    1
    20     5     6   ar
    21     6     7   ar
    22     7     8   ar
    23     8     9    1
    24     7    10    1
    25    10    11    1
    26    11    12   ar
    27    12    13   ar
    28    13    14   ar
    29    14    15   ar
    30     8     3   ar
    31    15    11   ar
    32    23    17    1
    33    15     6    1
    34    30    24   ar
@<TRIPOS>MOLECULE
*****
 30 34 0 0 0
SMALL
GASTEIGER

@<TRIPOS>ATOM
      1 O          60.7962   88.4284   12.0038 O.3     1  UNL1       -0.4630
      2 C          59.4616   87.6313    7.0456 C.3     1  UNL1        0.0308
      3 C          60.2150   87.2092    8.2720 C.ar    1  UNL1       -0.0231
      4 C          60.1289   88.0299    9.5248 C.ar    1  UNL1        0.0324
      5 C          60.8824   87.6077   10.7512 C.ar    1  UNL1        0.1402
      6 C          61.7220   86.3651   10.7250 C.ar    1  UNL1        0.0479
      7 C          61.8081   85.5444    9.4722 C.ar    1  UNL1       -0.0171
      8 C          61.0546   85.9665    8.2458 C.ar    1  UNL1       -0.0292
      9 C          61.1408   85.1458    6.9932 C.3     1  UNL1        0.0304
     10 C          62.7095   84.3767    9.7442 C.3     1  UNL1        0.0606
     11 C          63.1804   84.4756   11.1650 C.ar    1  UNL1        0.0308
     12 S          64.0285   83.8150   12.2111 S.2     1  UNL1       -0.0685
     13 C          63.9424   84.6357   13.4637 C.ar    1  UNL1        0.1342
     14 N          63.0410   85.8034   13.1918 N.ar    1  UNL1       -0.2365
     15 C          62.5701   85.7045   11.7711 C.ar    1  UNL1        0.0868
     16 C          61.0547   89.9051   11.9523 C.3     1  UNL1        0.3201
     17 P          62.3773   90.4511   12.4021 P.3     1  UNL1        0.3872
     18 O          61.8955   89.8445   13.6866 O.2     1  UNL1       -0.2539
     19 O          62.3998   90.8681   10.9614 O.3     1  UNL1       -0.2916
     20 C          63.5776   91.6204   10.4167 C.3     1  UNL1        0.1543
     21 C          64.7330   91.9558   11.3126 C.3     1  UNL1        0.0672
     22 C          64.7105   91.5388   12.7533 C.3     1  UNL1        0.1488
     23 O          63.5326   90.7865   13.2981 O.3     1  UNL1       -0.2896
     24 C          65.8658   91.8742   13.6493 C.ar    1  UNL1        0.0052
     25 C          65.6286   92.1657   15.1016 C.ar    1  UNL1       -0.0011
     26 C          66.7839   92.5010   15.9976 C.ar    1  UNL1        0.0111
     27 C          68.1763   92.5449   15.4415 C.ar    1  UNL1        0.0577
     28 CL         69.3316   92.8803   16.3375 Cl      1  UNL1       -0.0822
     29 C          68.4134   92.2535   13.9893 C.ar    1  UNL1        0.0111
     30 C          67.2582   91.9181   13.0933 C.ar    1  UNL1       -0.0011
@<TRIPOS>BOND
     1     2     3    1
     2     3     4   ar
     3     4     5   ar
     4     5     1    1
     5     1    16    1
     6    17    16    1
     7    17    18    2
     8    17    19    1
     9    19    20    1
    10    20    21    1
    11    21    22    1
    12    22    24    1
    13    24    25   ar
    14    25    26   ar
    15    26    27   ar
    16    27    28    1
    17    27    29   ar
    18    29    30   ar
    19    22    23    1
    20     5     6   ar
    21     6     7   ar
    22     7     8   ar
    23     8     9    1
    24     7    10    1
    25    10    11    1
    26    11    12   ar
    27    12    13   ar
    28    13    14   ar
    29    14    15   ar
    30     8     3   ar
    31    15    11   ar
    32    23    17    1
    33    15     6    1
    34    30    24   ar
@<TRIPOS>MOLECULE
*****
 30 34 0 0 0
SMALL
GASTEIGER

@<TRIPOS>ATOM
      1 O          62.8024   89.2487   13.1514 O.3     1  UNL1       -0.4630
      2 C          64.9209   84.7817   14.7506 C.3     1  UNL1        0.0308
      3 C          64.0885   85.5444   13.7630 C.ar    1  UNL1       -0.0231
      4 C          63.8617   87.0153   13.9510 C.ar    1  UNL1        0.0324
      5 C          63.0293   87.7780   12.9634 C.ar    1  UNL1        0.1402
      6 C          62.4237   87.0700   11.7879 C.ar    1  UNL1        0.0479
      7 C          62.6506   85.5992   11.5999 C.ar    1  UNL1       -0.0171
      8 C          63.4830   84.8364   12.5874 C.ar    1  UNL1       -0.0292
      9 C          63.7098   83.3656   12.3994 C.3     1  UNL1        0.0304
     10 C          61.9311   85.1748   10.3539 C.3     1  UNL1        0.0606
     11 C          61.2596   86.3832    9.7720 C.ar    1  UNL1        0.0308
     12 S          60.3999   86.8678    8.6423 S.2     1  UNL1       -0.0685
     13 C          60.1731   88.3386    8.8303 C.ar    1  UNL1        0.1342
     14 N          60.8926   88.7630   10.0762 N.ar    1  UNL1       -0.2365
     15 C          61.5641   87.5545   10.6582 C.ar    1  UNL1        0.0868
     16 C          63.8209   90.0781   13.8759 C.3     1  UNL1        0.3201
     17 P          64.5912   91.1330   13.1384 P.3     1  UNL1        0.3872
     18 O          63.4652   90.9097   12.1728 O.2     1  UNL1       -0.2539
     19 O          65.4497   90.9899   14.3601 O.3     1  UNL1       -0.2916
     20 C          66.6874   91.8242   14.5089 C.3     1  UNL1        0.1543
     21 C          67.0666   92.8015   13.4360 C.3     1  UNL1        0.0672
     22 C          66.2081   92.9445   12.2143 C.3     1  UNL1        0.1488
     23 O          64.9704   92.1102   12.0655 O.3     1  UNL1       -0.2896
     24 C          66.5873   93.9218   11.1413 C.ar    1  UNL1        0.0052
     25 C          67.3359   93.4518    9.9293 C.ar    1  UNL1       -0.0011
     26 C          67.7150   94.4291    8.8564 C.ar    1  UNL1        0.0111
     27 C          67.3457   95.8762    8.9954 C.ar    1  UNL1        0.0577
     28 CL         67.7249   96.8535    7.9224 Cl      1  UNL1       -0.0822
     29 C          66.5971   96.3461   10.2074 C.ar    1  UNL1        0.0111
     30 C          66.2180   95.3689   11.2803 C.ar    1  UNL1       -0.0011
@<TRIPOS>BOND
     1     2     3    1
     2     3     4   ar
     3     4     5   ar
     4     5     1    1
     5     1    16    1
     6    17    16    1
     7    17    18    2
     8    17    19    1
     9    19    20    1
    10    20    21    1
    11    21    22    1
    12    22    24    1
    13    24    25   ar
    14    25    26   ar
    15    26    27   ar
    16    27    28    1
    17    27    29   ar
    18    29    30   ar
    19    22    23    1
    20     5     6   ar
    21     6     7   ar
    22     7     8   ar
    23     8     9    1
    24     7    10    1
    25    10    11    1
    26    11    12   ar
    27    12    13   ar
    28    13    14   ar
    29    14    15   ar
    30     8     3   ar
    31    15    11   ar
    32    23    17    1
    33    15     6    1
    34    30    24   ar
@<TRIPOS>MOLECULE
*****
 30 34 0 0 0
SMALL
GASTEIGER

@<TRIPOS>ATOM
      1 O          61.6073   87.5192   11.9234 O.3     1  UNL1       -0.4630
      2 C          62.8574   84.8407    7.6499 C.3     1  UNL1        0.0308
      3 C          62.8872   84.9946    9.1417 C.ar    1  UNL1       -0.0231
      4 C          62.2323   86.1800    9.7867 C.ar    1  UNL1        0.0324
      5 C          62.2622   86.3338   11.2785 C.ar    1  UNL1        0.1402
      6 C          62.9469   85.3024   12.1253 C.ar    1  UNL1        0.0479
      7 C          63.6018   84.1169   11.4803 C.ar    1  UNL1       -0.0171
      8 C          63.5719   83.9630    9.9885 C.ar    1  UNL1       -0.0292
      9 C          64.2268   82.7776    9.3436 C.3     1  UNL1        0.0304
     10 C          64.1965   83.2687   12.5652 C.3     1  UNL1        0.0606
     11 C          63.9092   83.9299   13.8806 C.ar    1  UNL1        0.0308
     12 S          64.0992   83.8143   15.3640 S.2     1  UNL1       -0.0685
     13 C          63.4443   84.9997   16.0089 C.ar    1  UNL1        0.1342
     14 N          62.8496   85.8479   14.9241 N.ar    1  UNL1       -0.2365
     15 C          63.1369   85.1867   13.6087 C.ar    1  UNL1        0.0868
     16 C          61.7954   88.8889   11.3414 C.3     1  UNL1        0.3201
     17 P          62.8728   89.7877   11.8717 P.3     1  UNL1        0.3872
     18 O          62.6659   88.8987   13.0621 O.2     1  UNL1       -0.2539
     19 O          62.7056   90.3646   10.4972 O.3     1  UNL1       -0.2916
     20 C          63.5439   91.5315   10.0665 C.3     1  UNL1        0.1543
     21 C          64.5495   92.1216   11.0103 C.3     1  UNL1        0.0672
     22 C          64.7167   91.5447   12.3848 C.3     1  UNL1        0.1488
     23 O          63.8783   90.3777   12.8155 O.3     1  UNL1       -0.2896
     24 C          65.7222   92.1348   13.3286 C.ar    1  UNL1        0.0052
     25 C          66.1048   93.5803   13.2092 C.ar    1  UNL1       -0.0011
     26 C          67.1103   94.1703   14.1531 C.ar    1  UNL1        0.0111
     27 C          67.7332   93.3150   15.2162 C.ar    1  UNL1        0.0577
     28 CL         68.7387   93.9051   16.1600 Cl      1  UNL1       -0.0822
     29 C          67.3506   91.8695   15.3355 C.ar    1  UNL1        0.0111
     30 C          66.3451   91.2795   14.3917 C.ar    1  UNL1       -0.0011
@<TRIPOS>BOND
     1     2     3    1
     2     3     4   ar
     3     4     5   ar
     4     5     1    1
     5     1    16    1
     6    17    16    1
     7    17    18    2
     8    17    19    1
     9    19    20    1
    10    20    21    1
    11    21    22    1
    12    22    24    1
    13    24    25   ar
    14    25    26   ar
    15    26    27   ar
    16    27    28    1
    17    27    29   ar
    18    29    30   ar
    19    22    23    1
    20     5     6   ar
    21     6     7   ar
    22     7     8   ar
    23     8     9    1
    24     7    10    1
    25    10    11    1
    26    11    12   ar
    27    12    13   ar
    28    13    14   ar
    29    14    15   ar
    30     8     3   ar
    31    15    11   ar
    32    23    17    1
    33    15     6    1
    34    30    24   ar
@<TRIPOS>MOLECULE
*****
 30 34 0 0 0
SMALL
GASTEIGER

@<TRIPOS>ATOM
      1 O          61.6249   89.2769   12.2568 O.3     1  UNL1       -0.4630
      2 C          59.3886   88.6847    7.6040 C.3     1  UNL1        0.0308
      3 C          60.1899   88.1235    8.7410 C.ar    1  UNL1       -0.0231
      4 C          60.5067   88.9809    9.9304 C.ar    1  UNL1        0.0324
      5 C          61.3081   88.4196   11.0674 C.ar    1  UNL1        0.1402
      6 C          61.7926   87.0010   11.0152 C.ar    1  UNL1        0.0479
      7 C          61.4757   86.1436    9.8257 C.ar    1  UNL1       -0.0171
      8 C          60.6744   86.7049    8.6887 C.ar    1  UNL1       -0.0292
      9 C          60.3576   85.8475    7.4994 C.3     1  UNL1        0.0304
     10 C          62.0839   84.7915   10.0539 C.3     1  UNL1        0.0606
     11 C          62.7766   84.8133   11.3842 C.ar    1  UNL1        0.0308
     12 S          63.5805   83.9910   12.3474 S.2     1  UNL1       -0.0685
     13 C          63.8973   84.8484   13.5367 C.ar    1  UNL1        0.1342
     14 N          63.2892   86.2005   13.3086 N.ar    1  UNL1       -0.2365
     15 C          62.5965   86.1788   11.9783 C.ar    1  UNL1        0.0868
     16 C          63.0421   89.4092   12.7299 C.3     1  UNL1        0.3201
     17 P          63.8790   90.5687   12.2770 P.3     1  UNL1        0.3872
     18 O          63.0806   90.3214   11.0314 O.2     1  UNL1       -0.2539
     19 O          64.3867   90.4134   13.6799 O.3     1  UNL1       -0.2916
     20 C          65.4539   91.3316   14.1972 C.3     1  UNL1        0.1543
     21 C          66.0135   92.4053   13.3117 C.3     1  UNL1        0.0672
     22 C          65.5058   92.5607   11.9088 C.3     1  UNL1        0.1488
     23 O          64.4385   91.6423   11.3914 O.3     1  UNL1       -0.2896
     24 C          66.0654   93.6343   11.0232 C.ar    1  UNL1        0.0052
     25 C          66.9554   93.2690    9.8723 C.ar    1  UNL1       -0.0011
     26 C          67.5149   94.3426    8.9868 C.ar    1  UNL1        0.0111
     27 C          67.1845   95.7814    9.2519 C.ar    1  UNL1        0.0577
     28 CL         67.7440   96.8551    8.3664 Cl      1  UNL1       -0.0822
     29 C          66.2945   96.1468   10.4028 C.ar    1  UNL1        0.0111
     30 C          65.7349   95.0731   11.2884 C.ar    1  UNL1       -0.0011
@<TRIPOS>BOND
     1     2     3    1
     2     3     4   ar
     3     4     5   ar
     4     5     1    1
     5     1    16    1
     6    17    16    1
     7    17    18    2
     8    17    19    1
     9    19    20    1
    10    20    21    1
    11    21    22    1
    12    22    24    1
    13    24    25   ar
    14    25    26   ar
    15    26    27   ar
    16    27    28    1
    17    27    29   ar
    18    29    30   ar
    19    22    23    1
    20     5     6   ar
    21     6     7   ar
    22     7     8   ar
    23     8     9    1
    24     7    10    1
    25    10    11    1
    26    11    12   ar
    27    12    13   ar
    28    13    14   ar
    29    14    15   ar
    30     8     3   ar
    31    15    11   ar
    32    23    17    1
    33    15     6    1
    34    30    24   ar
@<TRIPOS>MOLECULE
*****
 30 34 0 0 0
SMALL
GASTEIGER

@<TRIPOS>ATOM
      1 O          63.0377   89.6162   15.3521 O.3     1  UNL1       -0.4630
      2 C          61.4670   89.7972   10.4023 C.3     1  UNL1        0.0308
      3 C          62.3953   90.2545   11.4881 C.ar    1  UNL1       -0.0231
      4 C          62.2523   89.7067   12.8772 C.ar    1  UNL1        0.0324
      5 C          63.1807   90.1641   13.9630 C.ar    1  UNL1        0.1402
      6 C          64.2521   91.1691   13.6598 C.ar    1  UNL1        0.0479
      7 C          64.3950   91.7169   12.2707 C.ar    1  UNL1       -0.0171
      8 C          63.4667   91.2596   11.1849 C.ar    1  UNL1       -0.0292
      9 C          63.6097   91.8074    9.7959 C.3     1  UNL1        0.0304
     10 C          65.5373   92.6892   12.2713 C.3     1  UNL1        0.0606
     11 C          66.1002   92.7423   13.6606 C.ar    1  UNL1        0.0308
     12 S          67.1541   93.3761   14.5196 S.2     1  UNL1       -0.0685
     13 C          67.0110   92.8283   15.9086 C.ar    1  UNL1        0.1342
     14 N          65.8688   91.8560   15.9081 N.ar    1  UNL1       -0.2365
     15 C          65.3059   91.8029   14.5188 C.ar    1  UNL1        0.0868
     16 C          63.8663   88.4431   15.7847 C.3     1  UNL1        0.3201
     17 P          63.6348   87.0942   15.1707 P.3     1  UNL1        0.3872
     18 O          64.3325   87.7814   14.0344 O.2     1  UNL1       -0.2539
     19 O          63.0176   86.8755   16.5202 O.3     1  UNL1       -0.2916
     20 C          62.4112   85.5466   16.8610 C.3     1  UNL1        0.1543
     21 C          62.4219   84.4363   15.8524 C.3     1  UNL1        0.0672
     22 C          63.0392   84.6551   14.5029 C.3     1  UNL1        0.1488
     23 O          63.6457   85.9840   14.1620 O.3     1  UNL1       -0.2896
     24 C          63.0501   83.5449   13.4942 C.ar    1  UNL1        0.0052
     25 C          63.7232   83.7428   12.1684 C.ar    1  UNL1       -0.0011
     26 C          63.7341   82.6326   11.1597 C.ar    1  UNL1        0.0111
     27 C          63.0718   81.3247   11.4767 C.ar    1  UNL1        0.0577
     28 CL         63.0827   80.2145   10.4681 Cl      1  UNL1       -0.0822
     29 C          62.3987   81.1268   12.8026 C.ar    1  UNL1        0.0111
     30 C          62.3878   82.2370   13.8112 C.ar    1  UNL1       -0.0011
@<TRIPOS>BOND
     1     2     3    1
     2     3     4   ar
     3     4     5   ar
     4     5     1    1
     5     1    16    1
     6    17    16    1
     7    17    18    2
     8    17    19    1
     9    19    20    1
    10    20    21    1
    11    21    22    1
    12    22    24    1
    13    24    25   ar
    14    25    26   ar
    15    26    27   ar
    16    27    28    1
    17    27    29   ar
    18    29    30   ar
    19    22    23    1
    20     5     6   ar
    21     6     7   ar
    22     7     8   ar
    23     8     9    1
    24     7    10    1
    25    10    11    1
    26    11    12   ar
    27    12    13   ar
    28    13    14   ar
    29    14    15   ar
    30     8     3   ar
    31    15    11   ar
    32    23    17    1
    33    15     6    1
    34    30    24   ar
@<TRIPOS>MOLECULE
*****
 30 34 0 0 0
SMALL
GASTEIGER

@<TRIPOS>ATOM
      1 O          61.9685   90.2282   11.4004 O.3     1  UNL1       -0.4630
      2 C          66.0231   93.1224    9.9229 C.3     1  UNL1        0.0308
      3 C          65.2680   92.3962   10.9963 C.ar    1  UNL1       -0.0231
      4 C          63.9958   91.6753   10.6616 C.ar    1  UNL1        0.0324
      5 C          63.2406   90.9490   11.7351 C.ar    1  UNL1        0.1402
      6 C          63.7576   90.9436   13.1431 C.ar    1  UNL1        0.0479
      7 C          65.0298   91.6645   13.4778 C.ar    1  UNL1       -0.0171
      8 C          65.7849   92.3908   12.4044 C.ar    1  UNL1       -0.0292
      9 C          67.0571   93.1116   12.7391 C.3     1  UNL1        0.0304
     10 C          65.2920   91.4854   14.9439 C.3     1  UNL1        0.0606
     11 C          64.1820   90.6539   15.5152 C.ar    1  UNL1        0.0308
     12 S          63.6581   90.0294   16.7744 S.2     1  UNL1       -0.0685
     13 C          62.3860   89.3086   16.4397 C.ar    1  UNL1        0.1342
     14 N          62.1236   89.4876   14.9737 N.ar    1  UNL1       -0.2365
     15 C          63.2337   90.3191   14.4023 C.ar    1  UNL1        0.0868
     16 C          61.9628   89.1720   10.3352 C.3     1  UNL1        0.3201
     17 P          62.1535   87.7313   10.7065 P.3     1  UNL1        0.3872
     18 O          61.8302   88.3068   12.0535 O.2     1  UNL1       -0.2539
     19 O          62.4106   87.6561    9.2307 O.3     1  UNL1       -0.2916
     20 C          62.7460   86.3400    8.5939 C.3     1  UNL1        0.1543
     21 C          62.8244   85.0991    9.4330 C.3     1  UNL1        0.0672
     22 C          62.5673   85.1743   10.9089 C.3     1  UNL1        0.1488
     23 O          62.2319   86.4904   11.5457 O.3     1  UNL1       -0.2896
     24 C          62.6457   83.9335   11.7481 C.ar    1  UNL1        0.0052
     25 C          62.4904   84.0242   13.2373 C.ar    1  UNL1       -0.0011
     26 C          62.5688   82.7834   14.0765 C.ar    1  UNL1        0.0111
     27 C          62.8024   81.4519   13.4266 C.ar    1  UNL1        0.0577
     28 CL         62.8808   80.2111   14.2657 Cl      1  UNL1       -0.0822
     29 C          62.9577   81.3612   11.9373 C.ar    1  UNL1        0.0111
     30 C          62.8793   82.6020   11.0982 C.ar    1  UNL1       -0.0011
@<TRIPOS>BOND
     1     2     3    1
     2     3     4   ar
     3     4     5   ar
     4     5     1    1
     5     1    16    1
     6    17    16    1
     7    17    18    2
     8    17    19    1
     9    19    20    1
    10    20    21    1
    11    21    22    1
    12    22    24    1
    13    24    25   ar
    14    25    26   ar
    15    26    27   ar
    16    27    28    1
    17    27    29   ar
    18    29    30   ar
    19    22    23    1
    20     5     6   ar
    21     6     7   ar
    22     7     8   ar
    23     8     9    1
    24     7    10    1
    25    10    11    1
    26    11    12   ar
    27    12    13   ar
    28    13    14   ar
    29    14    15   ar
    30     8     3   ar
    31    15    11   ar
    32    23    17    1
    33    15     6    1
    34    30    24   ar
@<TRIPOS>MOLECULE
*****
 30 34 0 0 0
SMALL
GASTEIGER

@<TRIPOS>ATOM
      1 O          62.1945   88.9421   12.3384 O.3     1  UNL1       -0.4630
      2 C          61.8371   86.0815    8.0153 C.3     1  UNL1        0.0308
      3 C          62.2223   86.2109    9.4592 C.ar    1  UNL1       -0.0231
      4 C          62.0158   87.5119   10.1769 C.ar    1  UNL1        0.0324
      5 C          62.4011   87.6412   11.6208 C.ar    1  UNL1        0.1402
      6 C          62.9928   86.4698   12.3470 C.ar    1  UNL1        0.0479
      7 C          63.1993   85.1688   11.6294 C.ar    1  UNL1       -0.0171
      8 C          62.8141   85.0394   10.1855 C.ar    1  UNL1       -0.0292
      9 C          63.0207   83.7385    9.4679 C.3     1  UNL1        0.0304
     10 C          63.7997   84.1947   12.5993 C.3     1  UNL1        0.0606
     11 C          63.9641   84.8935   13.9163 C.ar    1  UNL1        0.0308
     12 S          64.4368   84.7233   15.3297 S.2     1  UNL1       -0.0685
     13 C          64.2302   86.0242   16.0473 C.ar    1  UNL1        0.1342
     14 N          63.6299   86.9984   15.0774 N.ar    1  UNL1       -0.2365
     15 C          63.4655   86.2996   13.7604 C.ar    1  UNL1        0.0868
     16 C          63.3142   89.5464   13.1329 C.3     1  UNL1        0.3201
     17 P          64.1188   90.6739   12.5574 P.3     1  UNL1        0.3872
     18 O          63.1028   90.4965   11.4682 O.2     1  UNL1       -0.2539
     19 O          64.8554   90.4598   13.8465 O.3     1  UNL1       -0.2916
     20 C          66.0437   91.3115   14.1817 C.3     1  UNL1        0.1543
     21 C          66.4955   92.3775   13.2279 C.3     1  UNL1        0.0672
     22 C          65.7589   92.5916   11.9388 C.3     1  UNL1        0.1488
     23 O          64.5705   91.7398   11.6036 O.3     1  UNL1       -0.2896
     24 C          66.2107   93.6575   10.9850 C.ar    1  UNL1        0.0052
     25 C          65.7333   95.0691   11.1570 C.ar    1  UNL1       -0.0011
     26 C          66.1850   96.1350   10.2032 C.ar    1  UNL1        0.0111
     27 C          67.1140   95.7895    9.0774 C.ar    1  UNL1        0.0577
     28 CL         67.5658   96.8553    8.1236 Cl      1  UNL1       -0.0822
     29 C          67.5914   94.3778    8.9054 C.ar    1  UNL1        0.0111
     30 C          67.1397   93.3119    9.8593 C.ar    1  UNL1       -0.0011
@<TRIPOS>BOND
     1     2     3    1
     2     3     4   ar
     3     4     5   ar
     4     5     1    1
     5     1    16    1
     6    17    16    1
     7    17    18    2
     8    17    19    1
     9    19    20    1
    10    20    21    1
    11    21    22    1
    12    22    24    1
    13    24    25   ar
    14    25    26   ar
    15    26    27   ar
    16    27    28    1
    17    27    29   ar
    18    29    30   ar
    19    22    23    1
    20     5     6   ar
    21     6     7   ar
    22     7     8   ar
    23     8     9    1
    24     7    10    1
    25    10    11    1
    26    11    12   ar
    27    12    13   ar
    28    13    14   ar
    29    14    15   ar
    30     8     3   ar
    31    15    11   ar
    32    23    17    1
    33    15     6    1
    34    30    24   ar
