@<TRIPOS>MOLECULE
*****
 36 39 0 0 0
SMALL
GASTEIGER

@<TRIPOS>ATOM
      1 C          62.9194   84.9834   12.8786 C.3     1  UNL1        0.1338
      2 C          62.5879   83.7168   13.6106 C.2     1  UNL1        0.0732
      3 C          62.8243   83.9512   15.0731 C.2     1  UNL1        0.1887
      4 O          62.6191   82.9500   16.1711 O.2     1  UNL1       -0.5020
      5 C          63.3020   85.3628   15.2451 C.2     1  UNL1        0.2869
      6 O          63.6583   86.0208   16.5451 O.2     1  UNL1       -0.2662
      7 N          63.3608   86.0006   13.8887 N.am    1  UNL1       -0.2463
      8 H          62.3163   82.0870   15.9675 H       1  UNL1        0.2924
      9 C          61.8116   86.1487   10.8378 C.ar    1  UNL1        0.1365
     10 C          61.7181   86.3609    9.3558 C.ar    1  UNL1        0.0366
     11 C          62.6392   85.6198    8.4326 C.ar    1  UNL1        0.0031
     12 C          63.6537   84.6665    8.9914 C.ar    1  UNL1       -0.0001
     13 C          63.7471   84.4544   10.4733 C.ar    1  UNL1        0.0007
     14 C          62.8260   85.1955   11.3965 C.ar    1  UNL1        0.0344
     15 O          60.8905   86.8898   11.7611 O.3     1  UNL1       -0.4730
     16 C          59.8834   87.8513   11.2031 C.3     1  UNL1        0.2373
     17 C          60.1734   89.3229   11.1991 C.3     1  UNL1        0.1894
     18 C          60.0906   89.3461    8.6025 C.3     1  UNL1        0.1743
     19 O          60.1770   90.0831    9.9061 O.3     1  UNL1       -0.3471
     20 C          63.7862   87.4085   13.5943 C.ar    1  UNL1        0.0548
     21 C          64.6298   88.1592   14.5816 C.ar    1  UNL1        0.0149
     22 C          65.0552   89.5672   14.2871 C.ar    1  UNL1        0.0013
     23 C          64.6370   90.2245   13.0053 C.ar    1  UNL1        0.0006
     24 C          63.7934   89.4738   12.0179 C.ar    1  UNL1        0.0013
     25 C          63.3680   88.0659   12.3124 C.ar    1  UNL1        0.0149
     26 C          65.0625   91.6324   12.7108 C.ar    1  UNL1        0.0070
     27 C          64.7850   92.3912   11.4470 C.ar    1  UNL1        0.0075
     28 C          65.3910   93.7565   11.5835 C.ar    1  UNL1        0.0355
     29 S          66.0431   93.8415   12.9318 S.2     1  UNL1       -0.0859
     30 C          65.8400   92.5287   13.6284 C.ar    1  UNL1        0.0354
     31 C          62.1048   82.4399   12.9892 C.2     1  UNL1        0.1732
     32 O          61.3330   82.1506   11.9199 O.2     1  UNL1       -0.2915
     33 C          62.4914   81.1206   13.5889 C.3     1  UNL1        0.0554
     34 C          61.0682   80.8920   14.0038 C.3     1  UNL1        0.0077
     35 C          63.9147   81.3491   13.1741 C.3     1  UNL1        0.0077
     36 C          62.8782   79.8012   14.1887 C.3     1  UNL1        0.0077
@<TRIPOS>BOND
     1    18    19    1
     2    19    17    1
     3    17    16    1
     4    16    15    1
     5    15     9    1
     6     9    10   ar
     7    10    11   ar
     8    11    12   ar
     9    12    13   ar
    10    13    14   ar
    11    14     1    1
    12     1     2    1
    13     2    31    1
    14    31    32    2
    15    31    33    1
    16    33    34    1
    17    33    35    1
    18    33    36    1
    19     2     3    2
    20     3     4    1
    21     3     5    1
    22     5     6    2
    23     5     7   am
    24     7    20    1
    25    20    21   ar
    26    21    22   ar
    27    22    23   ar
    28    23    26    1
    29    26    27   ar
    30    27    28   ar
    31    28    29   ar
    32    29    30   ar
    33    23    24   ar
    34    24    25   ar
    35    14     9   ar
    36     7     1    1
    37    25    20   ar
    38    30    26   ar
    39     4     8    1
@<TRIPOS>MOLECULE
*****
 36 39 0 0 0
SMALL
GASTEIGER

@<TRIPOS>ATOM
      1 C          61.7880   95.6167   -1.9167 C.3     1  UNL1        0.1338
      2 C          63.2095   95.5534   -2.3911 C.2     1  UNL1        0.0732
      3 C          63.1995   95.5837   -3.8908 C.2     1  UNL1        0.1887
      4 O          64.4055   95.5398   -4.7816 O.2     1  UNL1       -0.5020
      5 C          61.7717   95.6657   -4.3432 C.2     1  UNL1        0.2869
      6 O          61.2992   95.7180   -5.7659 O.2     1  UNL1       -0.2662
      7 N          60.8993   95.6860   -3.1232 N.am    1  UNL1       -0.2463
      8 H          65.2630   95.4885   -4.4072 H       1  UNL1        0.2924
      9 C          60.7518   94.3651    0.1106 C.ar    1  UNL1        0.1365
     10 C          60.2984   94.3598    1.5404 C.ar    1  UNL1        0.0366
     11 C          60.4278   95.6009    2.3727 C.ar    1  UNL1        0.0031
     12 C          61.0105   96.8473    1.7753 C.ar    1  UNL1       -0.0001
     13 C          61.4639   96.8526    0.3455 C.ar    1  UNL1        0.0007
     14 C          61.3346   95.6114   -0.4868 C.ar    1  UNL1        0.0344
     15 O          60.6225   93.1239   -0.7218 O.3     1  UNL1       -0.4730
     16 C          59.3101   92.4007   -0.7911 C.3     1  UNL1        0.2373
     17 C          58.0251   93.1734   -0.7530 C.3     1  UNL1        0.1894
     18 C          56.1487   92.0072   -2.1204 C.3     1  UNL1        0.1743
     19 O          56.7125   92.4489   -0.8023 O.3     1  UNL1       -0.3471
     20 C          59.4013   95.7623   -3.1116 C.ar    1  UNL1        0.0548
     21 C          58.5959   94.8230   -3.9595 C.ar    1  UNL1        0.0149
     22 C          57.0979   94.8993   -3.9479 C.ar    1  UNL1        0.0013
     23 C          56.4053   95.9150   -3.0885 C.ar    1  UNL1        0.0006
     24 C          57.2107   96.8545   -2.2405 C.ar    1  UNL1        0.0013
     25 C          58.7087   96.7780   -2.2522 C.ar    1  UNL1        0.0149
     26 C          54.9072   95.9914   -3.0769 C.ar    1  UNL1        0.0070
     27 C          54.0443   96.5463   -4.1711 C.ar    1  UNL1        0.0075
     28 C          52.6129   96.4241   -3.7396 C.ar    1  UNL1        0.0355
     29 S          52.5912   95.7936   -2.3787 S.2     1  UNL1       -0.0859
     30 C          54.0093   95.5262   -1.9692 C.ar    1  UNL1        0.0354
     31 C          64.4274   95.4739   -1.5191 C.2     1  UNL1        0.1732
     32 O          65.6064   96.1310   -1.4925 O.2     1  UNL1       -0.2915
     33 C          64.4778   94.4887   -0.3892 C.3     1  UNL1        0.0554
     34 C          64.0986   93.3865   -1.3332 C.3     1  UNL1        0.0077
     35 C          64.8570   95.5909    0.5550 C.3     1  UNL1        0.0077
     36 C          64.5282   93.5035    0.7409 C.3     1  UNL1        0.0077
@<TRIPOS>BOND
     1    18    19    1
     2    19    17    1
     3    17    16    1
     4    16    15    1
     5    15     9    1
     6     9    10   ar
     7    10    11   ar
     8    11    12   ar
     9    12    13   ar
    10    13    14   ar
    11    14     1    1
    12     1     2    1
    13     2    31    1
    14    31    32    2
    15    31    33    1
    16    33    34    1
    17    33    35    1
    18    33    36    1
    19     2     3    2
    20     3     4    1
    21     3     5    1
    22     5     6    2
    23     5     7   am
    24     7    20    1
    25    20    21   ar
    26    21    22   ar
    27    22    23   ar
    28    23    26    1
    29    26    27   ar
    30    27    28   ar
    31    28    29   ar
    32    29    30   ar
    33    23    24   ar
    34    24    25   ar
    35    14     9   ar
    36     7     1    1
    37    25    20   ar
    38    30    26   ar
    39     4     8    1
@<TRIPOS>MOLECULE
*****
 36 39 0 0 0
SMALL
GASTEIGER

@<TRIPOS>ATOM
      1 C          62.0427   94.6229   -1.3170 C.3     1  UNL1        0.1338
      2 C          63.4803   94.2516   -1.5299 C.2     1  UNL1        0.0732
      3 C          63.6655   93.9297   -2.9832 C.2     1  UNL1        0.1887
      4 O          64.9487   93.5093   -3.6366 O.2     1  UNL1       -0.5020
      5 C          62.3423   94.1020   -3.6685 C.2     1  UNL1        0.2869
      6 O          62.0699   93.8841   -5.1273 O.2     1  UNL1       -0.2662
      7 N          61.3394   94.5304   -2.6386 N.am    1  UNL1       -0.2463
      8 H          65.7299   93.4280   -3.1256 H       1  UNL1        0.2924
      9 C          60.8209   93.9701    0.8811 C.ar    1  UNL1        0.1365
     10 C          60.1963   94.3645    2.1865 C.ar    1  UNL1        0.0366
     11 C          60.1686   95.8063    2.5993 C.ar    1  UNL1        0.0031
     12 C          60.7657   96.8536    1.7068 C.ar    1  UNL1       -0.0001
     13 C          61.3903   96.4592    0.4014 C.ar    1  UNL1        0.0007
     14 C          61.4180   95.0174   -0.0115 C.ar    1  UNL1        0.0344
     15 O          60.8486   92.5282    0.4681 O.3     1  UNL1       -0.4730
     16 C          61.8041   91.5777    1.1266 C.3     1  UNL1        0.2373
     17 C          62.7845   92.0837    2.1428 C.3     1  UNL1        0.1894
     18 C          61.2926   91.5321    4.1970 C.3     1  UNL1        0.1743
     19 O          62.6524   91.6763    3.5803 O.3     1  UNL1       -0.3471
     20 C          59.8879   94.8161   -2.8869 C.ar    1  UNL1        0.0548
     21 C          59.4371   96.2188   -3.1685 C.ar    1  UNL1        0.0149
     22 C          57.9857   96.5045   -3.4168 C.ar    1  UNL1        0.0013
     23 C          56.9850   95.3876   -3.3835 C.ar    1  UNL1        0.0006
     24 C          57.4358   93.9848   -3.1019 C.ar    1  UNL1        0.0013
     25 C          58.8872   93.6992   -2.8536 C.ar    1  UNL1        0.0149
     26 C          55.5335   95.6733   -3.6318 C.ar    1  UNL1        0.0070
     27 C          54.8643   95.7366   -4.9727 C.ar    1  UNL1        0.0075
     28 C          53.4137   96.0484   -4.7524 C.ar    1  UNL1        0.0355
     29 S          53.1864   96.1777   -3.2753 S.2     1  UNL1       -0.0859
     30 C          54.4966   95.9459   -2.5828 C.ar    1  UNL1        0.0354
     31 C          64.5457   94.2097   -0.4749 C.2     1  UNL1        0.1732
     32 O          65.2652   93.2182    0.0926 O.2     1  UNL1       -0.2915
     33 C          65.0072   95.4798    0.1760 C.3     1  UNL1        0.0554
     34 C          65.3075   96.0622   -1.1731 C.3     1  UNL1        0.0077
     35 C          64.7068   94.8974    1.5254 C.3     1  UNL1        0.0077
     36 C          65.4687   96.7499    0.8271 C.3     1  UNL1        0.0077
@<TRIPOS>BOND
     1    18    19    1
     2    19    17    1
     3    17    16    1
     4    16    15    1
     5    15     9    1
     6     9    10   ar
     7    10    11   ar
     8    11    12   ar
     9    12    13   ar
    10    13    14   ar
    11    14     1    1
    12     1     2    1
    13     2    31    1
    14    31    32    2
    15    31    33    1
    16    33    34    1
    17    33    35    1
    18    33    36    1
    19     2     3    2
    20     3     4    1
    21     3     5    1
    22     5     6    2
    23     5     7   am
    24     7    20    1
    25    20    21   ar
    26    21    22   ar
    27    22    23   ar
    28    23    26    1
    29    26    27   ar
    30    27    28   ar
    31    28    29   ar
    32    29    30   ar
    33    23    24   ar
    34    24    25   ar
    35    14     9   ar
    36     7     1    1
    37    25    20   ar
    38    30    26   ar
    39     4     8    1
@<TRIPOS>MOLECULE
*****
 36 39 0 0 0
SMALL
GASTEIGER

@<TRIPOS>ATOM
      1 C          62.7883   87.6069   11.9851 C.3     1  UNL1        0.1338
      2 C          63.2103   88.8878   12.6418 C.2     1  UNL1        0.0732
      3 C          64.1227   88.5454   13.7820 C.2     1  UNL1        0.1887
      4 O          64.7782   89.5238   14.7111 O.2     1  UNL1       -0.5020
      5 C          64.2647   87.0529   13.8301 C.2     1  UNL1        0.2869
      6 O          65.0870   86.2767   14.8157 O.2     1  UNL1       -0.2662
      7 N          63.4399   86.4729   12.7195 N.am    1  UNL1       -0.2463
      8 H          64.6304   90.4428   14.6040 H       1  UNL1        0.2924
      9 C          60.4458   87.9253   10.9073 C.ar    1  UNL1        0.1365
     10 C          59.5325   87.8004    9.7240 C.ar    1  UNL1        0.0366
     11 C          60.0483   87.2321    8.4352 C.ar    1  UNL1        0.0031
     12 C          61.4774   86.7887    8.3297 C.ar    1  UNL1       -0.0001
     13 C          62.3907   86.9136    9.5130 C.ar    1  UNL1        0.0007
     14 C          61.8749   87.4820   10.8018 C.ar    1  UNL1        0.0344
     15 O          59.9301   88.4937   12.1961 O.3     1  UNL1       -0.4730
     16 C          58.5284   89.0218   12.2752 C.3     1  UNL1        0.2373
     17 C          57.6317   88.6032   13.4024 C.3     1  UNL1        0.1894
     18 C          55.5243   87.1067   13.6659 C.3     1  UNL1        0.1743
     19 O          56.1740   88.3561   13.1491 O.3     1  UNL1       -0.3471
     20 C          63.2927   85.0148   12.3996 C.ar    1  UNL1        0.0548
     21 C          62.6907   84.0826   13.4087 C.ar    1  UNL1        0.0149
     22 C          62.5435   82.6245   13.0888 C.ar    1  UNL1        0.0013
     23 C          62.9982   82.0987   11.7596 C.ar    1  UNL1        0.0006
     24 C          63.6002   83.0310   10.7503 C.ar    1  UNL1        0.0013
     25 C          63.7474   84.4890   11.0704 C.ar    1  UNL1        0.0149
     26 C          62.8510   80.6406   11.4396 C.ar    1  UNL1        0.0070
     27 C          62.5683   79.5459   12.4253 C.ar    1  UNL1        0.0075
     28 C          62.5032   78.2500   11.6727 C.ar    1  UNL1        0.0355
     29 S          62.7456   78.5439   10.2218 S.2     1  UNL1       -0.0859
     30 C          62.9605   80.0214   10.0779 C.ar    1  UNL1        0.0354
     31 C          62.7931   90.2686   12.2305 C.2     1  UNL1        0.1732
     32 O          61.6650   90.9935   12.3878 O.2     1  UNL1       -0.2915
     33 C          63.7444   91.1445   11.4704 C.3     1  UNL1        0.0554
     34 C          63.0999   90.7267   10.1821 C.3     1  UNL1        0.0077
     35 C          64.3891   91.5623   12.7588 C.3     1  UNL1        0.0077
     36 C          64.6959   92.0203   10.7104 C.3     1  UNL1        0.0077
@<TRIPOS>BOND
     1    18    19    1
     2    19    17    1
     3    17    16    1
     4    16    15    1
     5    15     9    1
     6     9    10   ar
     7    10    11   ar
     8    11    12   ar
     9    12    13   ar
    10    13    14   ar
    11    14     1    1
    12     1     2    1
    13     2    31    1
    14    31    32    2
    15    31    33    1
    16    33    34    1
    17    33    35    1
    18    33    36    1
    19     2     3    2
    20     3     4    1
    21     3     5    1
    22     5     6    2
    23     5     7   am
    24     7    20    1
    25    20    21   ar
    26    21    22   ar
    27    22    23   ar
    28    23    26    1
    29    26    27   ar
    30    27    28   ar
    31    28    29   ar
    32    29    30   ar
    33    23    24   ar
    34    24    25   ar
    35    14     9   ar
    36     7     1    1
    37    25    20   ar
    38    30    26   ar
    39     4     8    1
@<TRIPOS>MOLECULE
*****
 36 39 0 0 0
SMALL
GASTEIGER

@<TRIPOS>ATOM
      1 C          62.8054   87.6532   11.9916 C.3     1  UNL1        0.1338
      2 C          63.2130   88.9376   12.6505 C.2     1  UNL1        0.0732
      3 C          64.0885   88.6007   13.8210 C.2     1  UNL1        0.1887
      4 O          64.7197   89.5838   14.7618 O.2     1  UNL1       -0.5020
      5 C          64.2219   87.1080   13.8855 C.2     1  UNL1        0.2869
      6 O          65.0099   86.3364   14.9022 O.2     1  UNL1       -0.2662
      7 N          63.4289   86.5225   12.7549 N.am    1  UNL1       -0.2463
      8 H          64.5795   90.5026   14.6427 H       1  UNL1        0.2924
      9 C          60.4896   87.9416   10.8497 C.ar    1  UNL1        0.1365
     10 C          59.6124   87.8109    9.6400 C.ar    1  UNL1        0.0366
     11 C          60.1739   87.2610    8.3624 C.ar    1  UNL1        0.0031
     12 C          61.6125   86.8419    8.2945 C.ar    1  UNL1       -0.0001
     13 C          62.4897   86.9726    9.5042 C.ar    1  UNL1        0.0007
     14 C          61.9282   87.5225   10.7818 C.ar    1  UNL1        0.0344
     15 O          59.9281   88.4915   12.1274 O.3     1  UNL1       -0.4730
     16 C          58.8277   89.5100   12.0860 C.3     1  UNL1        0.2373
     17 C          59.1122   90.9025   11.6067 C.3     1  UNL1        0.1894
     18 C          58.2710   93.3359   11.9549 C.3     1  UNL1        0.1743
     19 O          58.0080   91.9161   11.5486 O.3     1  UNL1       -0.3471
     20 C          63.2847   85.0625   12.4425 C.ar    1  UNL1        0.0548
     21 C          63.6414   84.5484   11.0793 C.ar    1  UNL1        0.0149
     22 C          63.4972   83.0884   10.7668 C.ar    1  UNL1        0.0013
     23 C          62.9964   82.1424   11.8177 C.ar    1  UNL1        0.0006
     24 C          62.6397   82.6564   13.1810 C.ar    1  UNL1        0.0013
     25 C          62.7839   84.1165   13.4933 C.ar    1  UNL1        0.0149
     26 C          62.8522   80.6824   11.5052 C.ar    1  UNL1        0.0070
     27 C          62.5608   79.5936   12.4949 C.ar    1  UNL1        0.0075
     28 C          62.5026   78.2932   11.7497 C.ar    1  UNL1        0.0355
     29 S          62.7581   78.5783   10.2993 S.2     1  UNL1       -0.0859
     30 C          62.9741   80.0550   10.1483 C.ar    1  UNL1        0.0354
     31 C          62.8151   90.3168   12.2153 C.2     1  UNL1        0.1732
     32 O          61.7232   91.0851   12.4159 O.2     1  UNL1       -0.2915
     33 C          63.7438   91.1324   11.3654 C.3     1  UNL1        0.0554
     34 C          62.9972   90.7030   10.1374 C.3     1  UNL1        0.0077
     35 C          64.4905   91.5618   12.5935 C.3     1  UNL1        0.0077
     36 C          64.6726   91.9480   10.5156 C.3     1  UNL1        0.0077
@<TRIPOS>BOND
     1    18    19    1
     2    19    17    1
     3    17    16    1
     4    16    15    1
     5    15     9    1
     6     9    10   ar
     7    10    11   ar
     8    11    12   ar
     9    12    13   ar
    10    13    14   ar
    11    14     1    1
    12     1     2    1
    13     2    31    1
    14    31    32    2
    15    31    33    1
    16    33    34    1
    17    33    35    1
    18    33    36    1
    19     2     3    2
    20     3     4    1
    21     3     5    1
    22     5     6    2
    23     5     7   am
    24     7    20    1
    25    20    21   ar
    26    21    22   ar
    27    22    23   ar
    28    23    26    1
    29    26    27   ar
    30    27    28   ar
    31    28    29   ar
    32    29    30   ar
    33    23    24   ar
    34    24    25   ar
    35    14     9   ar
    36     7     1    1
    37    25    20   ar
    38    30    26   ar
    39     4     8    1
@<TRIPOS>MOLECULE
*****
 36 39 0 0 0
SMALL
GASTEIGER

@<TRIPOS>ATOM
      1 C          64.9423   91.2699   13.7152 C.3     1  UNL1        0.1338
      2 C          65.9100   92.3472   14.1060 C.2     1  UNL1        0.0732
      3 C          66.0990   93.2515   12.9242 C.2     1  UNL1        0.1887
      4 O          66.9836   94.4618   12.8727 O.2     1  UNL1       -0.5020
      5 C          65.2480   92.7330   11.8030 C.2     1  UNL1        0.2869
      6 O          65.1323   93.3337   10.4334 O.2     1  UNL1       -0.2662
      7 N          64.5332   91.5083   12.2919 N.am    1  UNL1       -0.2463
      8 H          67.4812   94.7109   13.6265 H       1  UNL1        0.2924
      9 C          63.5881   90.4442   15.7730 C.ar    1  UNL1        0.1365
     10 C          63.1128   89.3250   16.6513 C.ar    1  UNL1        0.0366
     11 C          63.5165   87.9121   16.3501 C.ar    1  UNL1        0.0031
     12 C          64.3955   87.6185   15.1706 C.ar    1  UNL1       -0.0001
     13 C          64.8707   88.7377   14.2923 C.ar    1  UNL1        0.0007
     14 C          64.4670   90.1506   14.5935 C.ar    1  UNL1        0.0344
     15 O          63.1844   91.8572   16.0742 O.3     1  UNL1       -0.4730
     16 C          63.5820   92.4897   17.3749 C.3     1  UNL1        0.2373
     17 C          63.2940   93.9409   17.6221 C.3     1  UNL1        0.1894
     18 C          60.7218   94.1840   17.8959 C.3     1  UNL1        0.1743
     19 O          61.9904   94.5335   17.1756 O.3     1  UNL1       -0.3471
     20 C          63.5770   90.6692   11.4970 C.ar    1  UNL1        0.0548
     21 C          62.9590   91.2183   10.2454 C.ar    1  UNL1        0.0149
     22 C          62.0029   90.3793    9.4506 C.ar    1  UNL1        0.0013
     23 C          61.6648   88.9911    9.9072 C.ar    1  UNL1        0.0006
     24 C          62.2828   88.4419   11.1588 C.ar    1  UNL1        0.0013
     25 C          63.2389   89.2810   11.9537 C.ar    1  UNL1        0.0149
     26 C          60.7086   88.1521    9.1123 C.ar    1  UNL1        0.0070
     27 C          60.6099   86.6558    9.1468 C.ar    1  UNL1        0.0075
     28 C          59.5237   86.2409    8.1992 C.ar    1  UNL1        0.0355
     29 S          58.9510   87.4810    7.5790 S.2     1  UNL1       -0.0859
     30 C          59.6835   88.6621    8.1435 C.ar    1  UNL1        0.0354
     31 C          66.5724   92.4946   15.4437 C.2     1  UNL1        0.1732
     32 O          66.1154   92.6224   16.7076 O.2     1  UNL1       -0.2915
     33 C          68.0690   92.5204   15.5408 C.3     1  UNL1        0.0554
     34 C          68.0087   93.9102   16.1016 C.3     1  UNL1        0.0077
     35 C          68.1294   91.1305   14.9799 C.3     1  UNL1        0.0077
     36 C          69.5656   92.5462   15.6379 C.3     1  UNL1        0.0077
@<TRIPOS>BOND
     1    18    19    1
     2    19    17    1
     3    17    16    1
     4    16    15    1
     5    15     9    1
     6     9    10   ar
     7    10    11   ar
     8    11    12   ar
     9    12    13   ar
    10    13    14   ar
    11    14     1    1
    12     1     2    1
    13     2    31    1
    14    31    32    2
    15    31    33    1
    16    33    34    1
    17    33    35    1
    18    33    36    1
    19     2     3    2
    20     3     4    1
    21     3     5    1
    22     5     6    2
    23     5     7   am
    24     7    20    1
    25    20    21   ar
    26    21    22   ar
    27    22    23   ar
    28    23    26    1
    29    26    27   ar
    30    27    28   ar
    31    28    29   ar
    32    29    30   ar
    33    23    24   ar
    34    24    25   ar
    35    14     9   ar
    36     7     1    1
    37    25    20   ar
    38    30    26   ar
    39     4     8    1
