@<TRIPOS>MOLECULE
*****
 39 44 0 0 0
SMALL
GASTEIGER

@<TRIPOS>ATOM
      1 C          65.4983   91.1607   13.7682 C.ar    1  UNL1        0.0856
      2 N          64.7233   90.1926   14.6121 N.ar    1  UNL1       -0.2405
      3 C          63.4782   89.5551   14.0704 C.ar    1  UNL1        0.1356
      4 C          63.0081   89.8858   12.6848 C.ar    1  UNL1        0.1578
      5 C          63.7831   90.8540   11.8410 C.ar    1  UNL1        0.0415
      6 C          65.0282   91.4914   12.3827 C.ar    1  UNL1        0.0379
      7 C          65.8032   92.4596   11.5389 C.ar    1  UNL1        0.0777
      8 C          67.1848   92.1087   11.0720 C.ar    1  UNL1        0.1176
      9 N          67.9598   93.0768   10.2282 N.ar    1  UNL1       -0.2209
     10 C          67.3533   94.3959    9.8512 C.ar    1  UNL1        0.2006
     11 N          67.8726   95.5433    9.0367 N.ar    1  UNL1       -0.1272
     12 N          66.8121   96.6034    9.0000 N.ar    1  UNL1       -0.1493
     13 C          65.6372   96.1111    9.7921 C.ar    1  UNL1        0.0995
     14 C          64.3533   96.8529   10.0183 C.3     1  UNL1        0.0557
     15 C          65.9716   94.7468   10.3181 C.ar    1  UNL1        0.1101
     16 N          65.1966   93.7786   11.1619 N.ar    1  UNL1       -0.3484
     17 H          64.2898   94.0090   11.4684 H       1  UNL1        0.1661
     18 C          65.7422   92.8179   16.5689 C.3     1  UNL1        0.0725
     19 C          66.8554   92.5599   15.5972 C.ar    1  UNL1        0.1248
     20 O          68.2763   93.0184   15.7423 O.2     1  UNL1       -0.4546
     21 C          69.0423   92.5399   14.5447 C.ar    1  UNL1        0.1792
     22 C          68.0949   91.7858   13.6594 C.ar    1  UNL1        0.0448
     23 C          66.7434   91.7982   14.3099 C.ar    1  UNL1        0.0512
     24 O          61.7630   89.2484   12.1431 O.3     1  UNL1       -0.4724
     25 C          61.3712   89.4655   10.7116 C.3     1  UNL1        0.2211
     26 C          60.6996   88.3663    9.9429 C.3     1  UNL1        0.0995
     27 N          59.9784   88.6771    8.6649 N.3     1  UNL1       -0.3190
     28 H          59.5847   87.8188    8.2793 H       1  UNL1        0.1189
     29 H          60.6326   89.0820    7.9952 H       1  UNL1        0.1189
     30 C          60.7492   86.9562   10.4523 C.3     1  UNL1        0.0472
     31 C          61.7519   85.9913    9.8923 C.2     1  UNL1       -0.0005
     32 C          62.1477   85.8688    8.4506 C.2     1  UNL1        0.0942
     33 N          63.1752   84.7812    8.3430 N.2     1  UNL1       -0.2482
     34 C          63.4144   84.2317    9.7181 C.2     1  UNL1        0.0631
     35 C          64.3195   83.1469   10.2220 C.3     1  UNL1        0.0717
     36 C          64.3449   82.8100   11.6834 C.2     1  UNL1       -0.0198
     37 C          63.4653   83.5579   12.6409 C.2     1  UNL1       -0.0042
     38 C          62.5601   84.6426   12.1370 C.2     1  UNL1        0.0006
     39 C          62.5347   84.9795   10.6756 C.2     1  UNL1        0.0114
@<TRIPOS>BOND
     1    18    19    1
     2    19    20   ar
     3    20    21   ar
     4    21    22   ar
     5    22    23   ar
     6    23     1    1
     7     1     2   ar
     8     2     3   ar
     9     3     4   ar
    10     4    24    1
    11    24    25    1
    12    25    26    1
    13    26    27    1
    14    26    30    1
    15    30    31    1
    16    31    32    2
    17    32    33    1
    18    33    34    2
    19    34    35    1
    20    35    36    1
    21    36    37    2
    22    37    38    1
    23    38    39    2
    24     4     5   ar
    25     5     6   ar
    26     6     7    1
    27     7     8   ar
    28     8     9   ar
    29     9    10   ar
    30    10    11   ar
    31    11    12   ar
    32    12    13   ar
    33    13    14    1
    34    13    15   ar
    35    15    16   ar
    36    23    19   ar
    37     6     1   ar
    38    16     7   ar
    39    39    31    1
    40    15    10    1
    41    39    34    1
    42    27    28    1
    43    27    29    1
    44    16    17    1
@<TRIPOS>MOLECULE
*****
 39 44 0 0 0
SMALL
GASTEIGER

@<TRIPOS>ATOM
      1 C          65.8038   91.5050   14.1429 C.ar    1  UNL1        0.0856
      2 N          65.2118   90.4377   15.0149 N.ar    1  UNL1       -0.2405
      3 C          63.9817   89.7031   14.5709 C.ar    1  UNL1        0.1356
      4 C          63.3435   90.0358   13.2547 C.ar    1  UNL1        0.1578
      5 C          63.9355   91.1030   12.3827 C.ar    1  UNL1        0.0415
      6 C          65.1656   91.8376   12.8268 C.ar    1  UNL1        0.0379
      7 C          65.7576   92.9049   11.9547 C.ar    1  UNL1        0.0777
      8 C          65.4447   94.3480   12.2184 C.ar    1  UNL1        0.1176
      9 N          66.0367   95.4153   11.3464 N.ar    1  UNL1       -0.2209
     10 C          66.9415   95.0395   10.2106 C.ar    1  UNL1        0.2006
     11 N          67.6666   95.8651    9.1896 N.ar    1  UNL1       -0.1272
     12 N          68.4277   94.9323    8.2947 N.ar    1  UNL1       -0.1493
     13 C          68.1728   93.5301    8.7628 C.ar    1  UNL1        0.0995
     14 C          68.7374   92.2811    8.1537 C.3     1  UNL1        0.0557
     15 C          67.2543   93.5964    9.9468 C.ar    1  UNL1        0.1101
     16 N          66.6623   92.5291   10.8189 N.ar    1  UNL1       -0.3484
     17 H          66.8677   91.5820   10.6458 H       1  UNL1        0.1661
     18 C          68.7602   91.2963   12.7772 C.3     1  UNL1        0.0725
     19 C          68.3928   92.1437   13.9591 C.ar    1  UNL1        0.1248
     20 O          69.3198   93.0440   14.7208 O.2     1  UNL1       -0.4546
     21 C          68.5338   93.6963   15.8193 C.ar    1  UNL1        0.1792
     22 C          67.1210   93.1992   15.7365 C.ar    1  UNL1        0.0448
     23 C          67.0339   92.2397   14.5869 C.ar    1  UNL1        0.0512
     24 O          62.1134   89.3011   12.8107 O.3     1  UNL1       -0.4724
     25 C          62.1090   88.5683   11.5020 C.3     1  UNL1        0.2211
     26 C          60.8486   87.9217   11.0087 C.3     1  UNL1        0.0995
     27 N          59.5666   88.1031   11.7661 N.3     1  UNL1       -0.3190
     28 H          58.8175   87.5985   11.2923 H       1  UNL1        0.1189
     29 H          59.3343   89.0954   11.8086 H       1  UNL1        0.1189
     30 C          60.8701   87.0938    9.7580 C.3     1  UNL1        0.0472
     31 C          61.9035   86.0200    9.5872 C.2     1  UNL1       -0.0005
     32 C          62.5459   85.6123    8.2945 C.2     1  UNL1        0.0942
     33 N          63.5152   84.5057    8.5874 N.2     1  UNL1       -0.2482
     34 C          63.4718   84.2294   10.0611 C.2     1  UNL1        0.0631
     35 C          64.2107   83.2466   10.9203 C.3     1  UNL1        0.0717
     36 C          63.9534   83.1997   12.3972 C.2     1  UNL1       -0.0198
     37 C          62.9572   84.1356   13.0151 C.2     1  UNL1       -0.0042
     38 C          62.2184   85.1184   12.1560 C.2     1  UNL1        0.0006
     39 C          62.4757   85.1653   10.6790 C.2     1  UNL1        0.0114
@<TRIPOS>BOND
     1    18    19    1
     2    19    20   ar
     3    20    21   ar
     4    21    22   ar
     5    22    23   ar
     6    23     1    1
     7     1     2   ar
     8     2     3   ar
     9     3     4   ar
    10     4    24    1
    11    24    25    1
    12    25    26    1
    13    26    27    1
    14    26    30    1
    15    30    31    1
    16    31    32    2
    17    32    33    1
    18    33    34    2
    19    34    35    1
    20    35    36    1
    21    36    37    2
    22    37    38    1
    23    38    39    2
    24     4     5   ar
    25     5     6   ar
    26     6     7    1
    27     7     8   ar
    28     8     9   ar
    29     9    10   ar
    30    10    11   ar
    31    11    12   ar
    32    12    13   ar
    33    13    14    1
    34    13    15   ar
    35    15    16   ar
    36    23    19   ar
    37     6     1   ar
    38    16     7   ar
    39    39    31    1
    40    15    10    1
    41    39    34    1
    42    27    28    1
    43    27    29    1
    44    16    17    1
@<TRIPOS>MOLECULE
*****
 39 44 0 0 0
SMALL
GASTEIGER

@<TRIPOS>ATOM
      1 C          61.6967   87.3462    9.3222 C.ar    1  UNL1        0.0856
      2 N          61.3470   88.7828    9.0700 N.ar    1  UNL1       -0.2405
      3 C          61.6638   89.8242   10.1021 C.ar    1  UNL1        0.1356
      4 C          62.3304   89.4289   11.3864 C.ar    1  UNL1        0.1578
      5 C          62.6801   87.9922   11.6387 C.ar    1  UNL1        0.0415
      6 C          62.3632   86.9509   10.6065 C.ar    1  UNL1        0.0379
      7 C          62.7130   85.5142   10.8587 C.ar    1  UNL1        0.0777
      8 C          63.3630   84.6999    9.7796 C.ar    1  UNL1        0.1176
      9 N          63.7127   83.2632   10.0319 N.ar    1  UNL1       -0.2209
     10 C          63.4124   82.6407   11.3631 C.ar    1  UNL1        0.2006
     11 N          63.6404   81.2585   11.8992 N.ar    1  UNL1       -0.1272
     12 N          63.1313   81.2184   13.3096 N.ar    1  UNL1       -0.1493
     13 C          62.5886   82.5760   13.6452 C.ar    1  UNL1        0.0995
     14 C          61.9792   82.9830   14.9540 C.3     1  UNL1        0.0557
     15 C          62.7624   83.4550   12.4422 C.ar    1  UNL1        0.1101
     16 N          62.4127   84.8917   12.1900 N.ar    1  UNL1       -0.3484
     17 H          61.9860   85.4261   12.8982 H       1  UNL1        0.1661
     18 C          58.7444   86.7036    8.0892 C.3     1  UNL1        0.0725
     19 C          60.0228   86.0094    7.7234 C.ar    1  UNL1        0.1248
     20 O          60.1686   84.8981    6.7266 O.2     1  UNL1       -0.4546
     21 C          61.6158   84.5066    6.6774 C.ar    1  UNL1        0.1792
     22 C          62.3644   85.3760    7.6437 C.ar    1  UNL1        0.0448
     23 C          61.3798   86.3048    8.2902 C.ar    1  UNL1        0.0512
     24 O          62.6472   90.4702   12.4185 O.3     1  UNL1       -0.4724
     25 C          63.5887   91.5905   12.0890 C.3     1  UNL1        0.2211
     26 C          64.8004   91.8269   12.9409 C.3     1  UNL1        0.0995
     27 N          65.5070   93.1490   12.8896 N.3     1  UNL1       -0.3190
     28 H          66.3027   93.1343   13.5276 H       1  UNL1        0.1189
     29 H          64.8629   93.8898   13.1664 H       1  UNL1        0.1189
     30 C          65.3056   90.7411   13.8443 C.3     1  UNL1        0.0472
     31 C          64.4756   90.2874   15.0085 C.2     1  UNL1       -0.0005
     32 C          63.8117   91.1766   16.0178 C.2     1  UNL1        0.0942
     33 N          63.0897   90.3036   17.0008 N.2     1  UNL1       -0.2482
     34 C          63.3072   88.8749   16.5991 C.2     1  UNL1        0.0631
     35 C          62.8360   87.5817   17.1955 C.3     1  UNL1        0.0717
     36 C          63.2214   86.2786   16.5605 C.2     1  UNL1       -0.0198
     37 C          64.0780   86.2686   15.3292 C.2     1  UNL1       -0.0042
     38 C          64.5491   87.5617   14.7328 C.2     1  UNL1        0.0006
     39 C          64.1638   88.8649   15.3678 C.2     1  UNL1        0.0114
@<TRIPOS>BOND
     1    18    19    1
     2    19    20   ar
     3    20    21   ar
     4    21    22   ar
     5    22    23   ar
     6    23     1    1
     7     1     2   ar
     8     2     3   ar
     9     3     4   ar
    10     4    24    1
    11    24    25    1
    12    25    26    1
    13    26    27    1
    14    26    30    1
    15    30    31    1
    16    31    32    2
    17    32    33    1
    18    33    34    2
    19    34    35    1
    20    35    36    1
    21    36    37    2
    22    37    38    1
    23    38    39    2
    24     4     5   ar
    25     5     6   ar
    26     6     7    1
    27     7     8   ar
    28     8     9   ar
    29     9    10   ar
    30    10    11   ar
    31    11    12   ar
    32    12    13   ar
    33    13    14    1
    34    13    15   ar
    35    15    16   ar
    36    23    19   ar
    37     6     1   ar
    38    16     7   ar
    39    39    31    1
    40    15    10    1
    41    39    34    1
    42    27    28    1
    43    27    29    1
    44    16    17    1
@<TRIPOS>MOLECULE
*****
 39 44 0 0 0
SMALL
GASTEIGER

@<TRIPOS>ATOM
      1 C          62.9871   89.6350   12.0179 C.ar    1  UNL1        0.0856
      2 N          63.0926   91.0237   11.4608 N.ar    1  UNL1       -0.2405
      3 C          64.0031   92.0245   12.1084 C.ar    1  UNL1        0.1356
      4 C          64.8080   91.6366   13.3134 C.ar    1  UNL1        0.1578
      5 C          64.7025   90.2480   13.8705 C.ar    1  UNL1        0.0415
      6 C          63.7921   89.2472   13.2228 C.ar    1  UNL1        0.0379
      7 C          63.6866   87.8585   13.7799 C.ar    1  UNL1        0.0777
      8 C          63.7676   87.6365   15.2612 C.ar    1  UNL1        0.1176
      9 N          63.6621   86.2478   15.8183 N.ar    1  UNL1       -0.2209
     10 C          63.4756   85.0811   14.8943 C.ar    1  UNL1        0.2006
     11 N          63.3403   83.6094   15.1505 N.ar    1  UNL1       -0.1272
     12 N          63.1756   82.9217   13.8277 N.ar    1  UNL1       -0.1493
     13 C          63.2091   83.9685   12.7538 C.ar    1  UNL1        0.0995
     14 C          63.0799   83.7237   11.2796 C.3     1  UNL1        0.0557
     15 C          63.3945   85.3031   13.4130 C.ar    1  UNL1        0.1101
     16 N          63.5000   86.6918   12.8559 N.ar    1  UNL1       -0.3484
     17 H          63.4468   86.8374   11.8837 H       1  UNL1        0.1661
     18 C          59.7361   89.5446   12.2854 C.3     1  UNL1        0.0725
     19 C          60.5823   88.5926   11.4932 C.ar    1  UNL1        0.1248
     20 O          60.0829   87.4320   10.6848 O.2     1  UNL1       -0.4546
     21 C          61.2686   86.7562   10.0623 C.ar    1  UNL1        0.1792
     22 C          62.5008   87.4992   10.4859 C.ar    1  UNL1        0.0448
     23 C          62.0767   88.6342   11.3702 C.ar    1  UNL1        0.0512
     24 O          65.7184   92.6375   13.9610 O.3     1  UNL1       -0.4724
     25 C          67.1587   92.2950   14.2024 C.3     1  UNL1        0.2211
     26 C          68.0458   91.9287   13.0497 C.3     1  UNL1        0.0995
     27 N          69.5306   91.8419   13.2440 N.3     1  UNL1       -0.3190
     28 H          69.9743   91.5832   12.3628 H       1  UNL1        0.1189
     29 H          69.7405   91.1366   13.9503 H       1  UNL1        0.1189
     30 C          67.4481   91.6490   11.7026 C.3     1  UNL1        0.0472
     31 C          67.6543   92.6166   10.5751 C.2     1  UNL1       -0.0005
     32 C          68.4071   92.3447    9.3065 C.2     1  UNL1        0.0942
     33 N          68.3619   93.5860    8.4656 N.2     1  UNL1       -0.2482
     34 C          67.5812   94.6251    9.2145 C.2     1  UNL1        0.0631
     35 C          67.2121   96.0394    8.8778 C.3     1  UNL1        0.0717
     36 C          66.4056   96.8545    9.8447 C.2     1  UNL1       -0.0198
     37 C          65.9682   96.2554   11.1485 C.2     1  UNL1       -0.0042
     38 C          66.3374   94.8411   11.4852 C.2     1  UNL1        0.0006
     39 C          67.1439   94.0260   10.5183 C.2     1  UNL1        0.0114
@<TRIPOS>BOND
     1    18    19    1
     2    19    20   ar
     3    20    21   ar
     4    21    22   ar
     5    22    23   ar
     6    23     1    1
     7     1     2   ar
     8     2     3   ar
     9     3     4   ar
    10     4    24    1
    11    24    25    1
    12    25    26    1
    13    26    27    1
    14    26    30    1
    15    30    31    1
    16    31    32    2
    17    32    33    1
    18    33    34    2
    19    34    35    1
    20    35    36    1
    21    36    37    2
    22    37    38    1
    23    38    39    2
    24     4     5   ar
    25     5     6   ar
    26     6     7    1
    27     7     8   ar
    28     8     9   ar
    29     9    10   ar
    30    10    11   ar
    31    11    12   ar
    32    12    13   ar
    33    13    14    1
    34    13    15   ar
    35    15    16   ar
    36    23    19   ar
    37     6     1   ar
    38    16     7   ar
    39    39    31    1
    40    15    10    1
    41    39    34    1
    42    27    28    1
    43    27    29    1
    44    16    17    1
@<TRIPOS>MOLECULE
*****
 39 44 0 0 0
SMALL
GASTEIGER

@<TRIPOS>ATOM
      1 C          63.4015   86.7934   13.0819 C.ar    1  UNL1        0.0856
      2 N          64.3283   87.1304   14.2121 N.ar    1  UNL1       -0.2405
      3 C          64.5962   88.5646   14.5602 C.ar    1  UNL1        0.1356
      4 C          63.9372   89.6620   13.7780 C.ar    1  UNL1        0.1578
      5 C          63.0104   89.3250   12.6477 C.ar    1  UNL1        0.0415
      6 C          62.7426   87.8907   12.2997 C.ar    1  UNL1        0.0379
      7 C          61.8158   87.5537   11.1695 C.ar    1  UNL1        0.0777
      8 C          60.4163   88.0936   11.1607 C.ar    1  UNL1        0.1176
      9 N          59.4895   87.7567   10.0304 N.ar    1  UNL1       -0.2209
     10 C          59.9620   86.8798    8.9090 C.ar    1  UNL1        0.2006
     11 N          59.2802   86.3801    7.6699 N.ar    1  UNL1       -0.1272
     12 N          60.2582   85.5314    6.9128 N.ar    1  UNL1       -0.1493
     13 C          61.5445   85.5065    7.6841 C.ar    1  UNL1        0.0995
     14 C          62.7944   84.7765    7.2906 C.3     1  UNL1        0.0557
     15 C          61.3615   86.3399    8.9177 C.ar    1  UNL1        0.1101
     16 N          62.2883   86.6769   10.0480 N.ar    1  UNL1       -0.3484
     17 H          63.2068   86.3225   10.0537 H       1  UNL1        0.1661
     18 C          62.2076   84.5213   15.0972 C.3     1  UNL1        0.0725
     19 C          62.5848   84.3148   13.6601 C.ar    1  UNL1        0.1248
     20 O          62.4795   83.0276   12.8971 O.2     1  UNL1       -0.4546
     21 C          62.9631   83.2766   11.4992 C.ar    1  UNL1        0.1792
     22 C          63.3674   84.7175   11.3983 C.ar    1  UNL1        0.0448
     23 C          63.1336   85.3592   12.7338 C.ar    1  UNL1        0.0512
     24 O          64.2051   91.0962   14.1260 O.3     1  UNL1       -0.4724
     25 C          65.6116   91.5600   14.3641 C.3     1  UNL1        0.2211
     26 C          66.2991   92.4224   13.3473 C.3     1  UNL1        0.0995
     27 N          67.5726   93.1307   13.7027 N.3     1  UNL1       -0.3190
     28 H          67.8988   93.6674   12.8990 H       1  UNL1        0.1189
     29 H          68.2813   92.4452   13.9641 H       1  UNL1        0.1189
     30 C          65.7129   92.5764   11.9751 C.3     1  UNL1        0.0472
     31 C          66.5648   93.0800   10.8479 C.2     1  UNL1       -0.0005
     32 C          67.7089   92.3475   10.2119 C.2     1  UNL1        0.0942
     33 N          68.2733   93.2194    9.1298 N.2     1  UNL1       -0.2482
     34 C          67.4781   94.4908    9.0969 C.2     1  UNL1        0.0631
     35 C          67.5790   95.7158    8.2372 C.3     1  UNL1        0.0717
     36 C          66.6241   96.8547    8.4394 C.2     1  UNL1       -0.0198
     37 C          65.5682   96.7686    9.5013 C.2     1  UNL1       -0.0042
     38 C          65.4672   95.5436   10.3610 C.2     1  UNL1        0.0006
     39 C          66.4222   94.4047   10.1587 C.2     1  UNL1        0.0114
@<TRIPOS>BOND
     1    18    19    1
     2    19    20   ar
     3    20    21   ar
     4    21    22   ar
     5    22    23   ar
     6    23     1    1
     7     1     2   ar
     8     2     3   ar
     9     3     4   ar
    10     4    24    1
    11    24    25    1
    12    25    26    1
    13    26    27    1
    14    26    30    1
    15    30    31    1
    16    31    32    2
    17    32    33    1
    18    33    34    2
    19    34    35    1
    20    35    36    1
    21    36    37    2
    22    37    38    1
    23    38    39    2
    24     4     5   ar
    25     5     6   ar
    26     6     7    1
    27     7     8   ar
    28     8     9   ar
    29     9    10   ar
    30    10    11   ar
    31    11    12   ar
    32    12    13   ar
    33    13    14    1
    34    13    15   ar
    35    15    16   ar
    36    23    19   ar
    37     6     1   ar
    38    16     7   ar
    39    39    31    1
    40    15    10    1
    41    39    34    1
    42    27    28    1
    43    27    29    1
    44    16    17    1
@<TRIPOS>MOLECULE
*****
 39 44 0 0 0
SMALL
GASTEIGER

@<TRIPOS>ATOM
      1 C          61.7707   87.3078    9.5375 C.ar    1  UNL1        0.0856
      2 N          61.4349   88.7607    9.3751 N.ar    1  UNL1       -0.2405
      3 C          61.7122   89.7238   10.4911 C.ar    1  UNL1        0.1356
      4 C          62.3252   89.2340   11.7696 C.ar    1  UNL1        0.1578
      5 C          62.6610   87.7812   11.9320 C.ar    1  UNL1        0.0415
      6 C          62.3837   86.8181   10.8159 C.ar    1  UNL1        0.0379
      7 C          62.7195   85.3652   10.9783 C.ar    1  UNL1        0.0777
      8 C          63.3822   84.6188    9.8586 C.ar    1  UNL1        0.1176
      9 N          63.7180   83.1660   10.0210 N.ar    1  UNL1       -0.2209
     10 C          63.3910   82.4593   11.3030 C.ar    1  UNL1        0.2006
     11 N          63.6006   81.0430   11.7502 N.ar    1  UNL1       -0.1272
     12 N          63.0674   80.9139   13.1463 N.ar    1  UNL1       -0.1493
     13 C          62.5283   82.2505   13.5619 C.ar    1  UNL1        0.0995
     14 C          61.8995   82.5750   14.8845 C.3     1  UNL1        0.0557
     15 C          62.7283   83.2057   12.4227 C.ar    1  UNL1        0.1101
     16 N          62.3925   84.6585   12.2603 N.ar    1  UNL1       -0.3484
     17 H          61.9575   85.1484   12.9953 H       1  UNL1        0.1661
     18 C          58.8580   86.7245    8.1864 C.3     1  UNL1        0.0725
     19 C          60.1546   86.0765    7.8004 C.ar    1  UNL1        0.1248
     20 O          60.3400   85.0467    6.7257 O.2     1  UNL1       -0.4546
     21 C          61.7935   84.6784    6.6825 C.ar    1  UNL1        0.1792
     22 C          62.5063   85.4805    7.7305 C.ar    1  UNL1        0.0448
     23 C          61.4934   86.3446    8.4214 C.ar    1  UNL1        0.0512
     24 O          62.6024   90.1972   12.8856 O.3     1  UNL1       -0.4724
     25 C          62.8607   89.6849   14.2715 C.3     1  UNL1        0.2211
     26 C          63.8499   90.3830   15.1569 C.3     1  UNL1        0.0995
     27 N          63.4132   90.9317   16.4829 N.3     1  UNL1       -0.3190
     28 H          64.2082   91.3698   16.9480 H       1  UNL1        0.1189
     29 H          63.0553   90.1733   17.0634 H       1  UNL1        0.1189
     30 C          65.2760   90.5325   14.7163 C.3     1  UNL1        0.0472
     31 C          65.7998   91.8796   14.3149 C.2     1  UNL1       -0.0005
     32 C          66.5303   92.8421   15.2037 C.2     1  UNL1        0.0942
     33 N          66.8669   94.0581   14.3924 N.2     1  UNL1       -0.2482
     34 C          66.3444   93.8470   13.0022 C.2     1  UNL1        0.0631
     35 C          66.3840   94.7069   11.7738 C.3     1  UNL1        0.0717
     36 C          65.7641   94.2203   10.4975 C.2     1  UNL1       -0.0198
     37 C          65.1046   92.8739   10.4497 C.2     1  UNL1       -0.0042
     38 C          65.0650   92.0141   11.6781 C.2     1  UNL1        0.0006
     39 C          65.6849   92.5006   12.9544 C.2     1  UNL1        0.0114
@<TRIPOS>BOND
     1    18    19    1
     2    19    20   ar
     3    20    21   ar
     4    21    22   ar
     5    22    23   ar
     6    23     1    1
     7     1     2   ar
     8     2     3   ar
     9     3     4   ar
    10     4    24    1
    11    24    25    1
    12    25    26    1
    13    26    27    1
    14    26    30    1
    15    30    31    1
    16    31    32    2
    17    32    33    1
    18    33    34    2
    19    34    35    1
    20    35    36    1
    21    36    37    2
    22    37    38    1
    23    38    39    2
    24     4     5   ar
    25     5     6   ar
    26     6     7    1
    27     7     8   ar
    28     8     9   ar
    29     9    10   ar
    30    10    11   ar
    31    11    12   ar
    32    12    13   ar
    33    13    14    1
    34    13    15   ar
    35    15    16   ar
    36    23    19   ar
    37     6     1   ar
    38    16     7   ar
    39    39    31    1
    40    15    10    1
    41    39    34    1
    42    27    28    1
    43    27    29    1
    44    16    17    1
@<TRIPOS>MOLECULE
*****
 39 44 0 0 0
SMALL
GASTEIGER

@<TRIPOS>ATOM
      1 C          62.3159   87.8481   10.0150 C.ar    1  UNL1        0.0856
      2 N          62.3054   89.3071    9.6670 N.ar    1  UNL1       -0.2405
      3 C          62.6992   90.3263   10.6947 C.ar    1  UNL1        0.1356
      4 C          63.1036   89.8863   12.0706 C.ar    1  UNL1        0.1578
      5 C          63.1142   88.4273   12.4187 C.ar    1  UNL1        0.0415
      6 C          62.7203   87.4082   11.3909 C.ar    1  UNL1        0.0379
      7 C          62.7308   85.9492   11.7390 C.ar    1  UNL1        0.0777
      8 C          62.7760   84.9187   10.6500 C.ar    1  UNL1        0.1176
      9 N          62.7865   83.4597   10.9981 N.ar    1  UNL1       -0.2209
     10 C          62.7518   83.0311   12.4351 C.ar    1  UNL1        0.2006
     11 N          62.7525   81.6764   13.0788 N.ar    1  UNL1       -0.1272
     12 N          62.7077   81.8695   14.5657 N.ar    1  UNL1       -0.1493
     13 C          62.6794   83.3438   14.8408 C.ar    1  UNL1        0.0995
     14 C          62.6321   83.9871   16.1951 C.3     1  UNL1        0.0557
     15 C          62.7066   84.0617   13.5241 C.ar    1  UNL1        0.1101
     16 N          62.6961   85.5207   13.1760 N.ar    1  UNL1       -0.3484
     17 H          62.6664   86.1971   13.8908 H       1  UNL1        0.1661
     18 C          59.2863   87.2722    8.9478 C.3     1  UNL1        0.0725
     19 C          60.5294   86.5643    8.4968 C.ar    1  UNL1        0.1248
     20 O          60.5983   85.4674    7.4759 O.2     1  UNL1       -0.4546
     21 C          62.0334   85.0542    7.3356 C.ar    1  UNL1        0.1792
     22 C          62.8515   85.8957    8.2697 C.ar    1  UNL1        0.0448
     23 C          61.9220   86.8290    8.9873 C.ar    1  UNL1        0.0512
     24 O          63.4975   90.9055   13.0984 O.3     1  UNL1       -0.4724
     25 C          64.6008   90.6041   14.0689 C.3     1  UNL1        0.2211
     26 C          65.6170   91.6567   14.3995 C.3     1  UNL1        0.0995
     27 N          65.4744   92.4699   15.6518 N.3     1  UNL1       -0.3190
     28 H          66.2471   93.1325   15.7168 H       1  UNL1        0.1189
     29 H          65.4879   91.8510   16.4625 H       1  UNL1        0.1189
     30 C          66.7761   91.8961   13.4777 C.3     1  UNL1        0.0472
     31 C          66.7156   93.0047   12.4690 C.2     1  UNL1       -0.0005
     32 C          66.0450   94.3330   12.6580 C.2     1  UNL1        0.0942
     33 N          66.2300   95.1288   11.4000 N.2     1  UNL1       -0.2482
     34 C          67.0150   94.2922   10.4336 C.2     1  UNL1        0.0631
     35 C          67.4953   94.5563    9.0373 C.3     1  UNL1        0.0717
     36 C          68.2757   93.5075    8.3018 C.2     1  UNL1       -0.0198
     37 C          68.5757   92.1947    8.9624 C.2     1  UNL1       -0.0042
     38 C          68.0955   91.9307   10.3587 C.2     1  UNL1        0.0006
     39 C          67.3151   92.9794   11.0943 C.2     1  UNL1        0.0114
@<TRIPOS>BOND
     1    18    19    1
     2    19    20   ar
     3    20    21   ar
     4    21    22   ar
     5    22    23   ar
     6    23     1    1
     7     1     2   ar
     8     2     3   ar
     9     3     4   ar
    10     4    24    1
    11    24    25    1
    12    25    26    1
    13    26    27    1
    14    26    30    1
    15    30    31    1
    16    31    32    2
    17    32    33    1
    18    33    34    2
    19    34    35    1
    20    35    36    1
    21    36    37    2
    22    37    38    1
    23    38    39    2
    24     4     5   ar
    25     5     6   ar
    26     6     7    1
    27     7     8   ar
    28     8     9   ar
    29     9    10   ar
    30    10    11   ar
    31    11    12   ar
    32    12    13   ar
    33    13    14    1
    34    13    15   ar
    35    15    16   ar
    36    23    19   ar
    37     6     1   ar
    38    16     7   ar
    39    39    31    1
    40    15    10    1
    41    39    34    1
    42    27    28    1
    43    27    29    1
    44    16    17    1
@<TRIPOS>MOLECULE
*****
 39 44 0 0 0
SMALL
GASTEIGER

@<TRIPOS>ATOM
      1 C          65.9497   91.3208   13.8879 C.ar    1  UNL1        0.0856
      2 N          65.2019   90.4394   14.8439 N.ar    1  UNL1       -0.2405
      3 C          63.8520   89.9027   14.4700 C.ar    1  UNL1        0.1356
      4 C          63.2499   90.2475   13.1400 C.ar    1  UNL1        0.1578
      5 C          63.9977   91.1289   12.1840 C.ar    1  UNL1        0.0415
      6 C          65.3476   91.6655   12.5580 C.ar    1  UNL1        0.0379
      7 C          66.0954   92.5469   11.6021 C.ar    1  UNL1        0.0777
      8 C          67.4412   92.1264   11.0902 C.ar    1  UNL1        0.1176
      9 N          68.1890   93.0078   10.1342 N.ar    1  UNL1       -0.2209
     10 C          67.5910   94.3098    9.6901 C.ar    1  UNL1        0.2006
     11 N          68.0891   95.3787    8.7631 N.ar    1  UNL1       -0.1272
     12 N          67.0513   96.4599    8.7020 N.ar    1  UNL1       -0.1493
     13 C          65.9117   96.0592    9.5913 C.ar    1  UNL1        0.0995
     14 C          64.6585   96.8487    9.8282 C.3     1  UNL1        0.0557
     15 C          66.2453   94.7303   10.2019 C.ar    1  UNL1        0.1101
     16 N          65.4975   93.8489   11.1579 N.ar    1  UNL1       -0.3484
     17 H          64.6142   94.1250   11.4938 H       1  UNL1        0.1661
     18 C          66.6560   93.0335   16.5743 C.3     1  UNL1        0.0725
     19 C          67.6242   92.6447   15.4967 C.ar    1  UNL1        0.1248
     20 O          69.0871   92.9749   15.4646 O.2     1  UNL1       -0.4546
     21 C          69.6665   92.3917   14.2099 C.ar    1  UNL1        0.1792
     22 C          68.5617   91.7011   13.4665 C.ar    1  UNL1        0.0448
     23 C          67.2996   91.8574   14.2618 C.ar    1  UNL1        0.0512
     24 O          61.9000   89.7108   12.7661 O.3     1  UNL1       -0.4724
     25 C          61.6984   89.0491   11.4352 C.3     1  UNL1        0.2211
     26 C          60.3669   89.1336   10.7496 C.3     1  UNL1        0.0995
     27 N          59.8200   90.4675   10.3352 N.3     1  UNL1       -0.3190
     28 H          58.9127   90.3386    9.8872 H       1  UNL1        0.1189
     29 H          60.4635   90.9097    9.6789 H       1  UNL1        0.1189
     30 C          59.5822   87.8842   10.4786 C.3     1  UNL1        0.0472
     31 C          59.7474   87.1631    9.1737 C.2     1  UNL1       -0.0005
     32 C          58.7650   87.1552    8.0402 C.2     1  UNL1        0.0942
     33 N          59.3344   86.3105    6.9392 N.2     1  UNL1       -0.2482
     34 C          60.6687   85.7963    7.3923 C.2     1  UNL1        0.0631
     35 C          61.6843   84.9163    6.7258 C.3     1  UNL1        0.0717
     36 C          62.9550   84.5633    7.4403 C.2     1  UNL1       -0.0198
     37 C          63.2102   85.0903    8.8213 C.2     1  UNL1       -0.0042
     38 C          62.1947   85.9702    9.4878 C.2     1  UNL1        0.0006
     39 C          60.9239   86.3232    8.7733 C.2     1  UNL1        0.0114
@<TRIPOS>BOND
     1    18    19    1
     2    19    20   ar
     3    20    21   ar
     4    21    22   ar
     5    22    23   ar
     6    23     1    1
     7     1     2   ar
     8     2     3   ar
     9     3     4   ar
    10     4    24    1
    11    24    25    1
    12    25    26    1
    13    26    27    1
    14    26    30    1
    15    30    31    1
    16    31    32    2
    17    32    33    1
    18    33    34    2
    19    34    35    1
    20    35    36    1
    21    36    37    2
    22    37    38    1
    23    38    39    2
    24     4     5   ar
    25     5     6   ar
    26     6     7    1
    27     7     8   ar
    28     8     9   ar
    29     9    10   ar
    30    10    11   ar
    31    11    12   ar
    32    12    13   ar
    33    13    14    1
    34    13    15   ar
    35    15    16   ar
    36    23    19   ar
    37     6     1   ar
    38    16     7   ar
    39    39    31    1
    40    15    10    1
    41    39    34    1
    42    27    28    1
    43    27    29    1
    44    16    17    1
@<TRIPOS>MOLECULE
*****
 39 44 0 0 0
SMALL
GASTEIGER

@<TRIPOS>ATOM
      1 C          60.8798   87.2015    9.1441 C.ar    1  UNL1        0.0856
      2 N          60.1737   86.5719    7.9800 N.ar    1  UNL1       -0.2405
      3 C          59.4249   87.4298    7.0037 C.ar    1  UNL1        0.1356
      4 C          59.3822   88.9175    7.1914 C.ar    1  UNL1        0.1578
      5 C          60.0883   89.5471    8.3554 C.ar    1  UNL1        0.0415
      6 C          60.8371   88.6891    9.3317 C.ar    1  UNL1        0.0379
      7 C          61.5432   89.3188   10.4957 C.ar    1  UNL1        0.0777
      8 C          61.0777   89.0417   11.8945 C.ar    1  UNL1        0.1176
      9 N          61.7838   89.6714   13.0585 N.ar    1  UNL1       -0.2209
     10 C          62.9554   90.5781   12.8238 C.ar    1  UNL1        0.2006
     11 N          63.8426   91.3361   13.7663 N.ar    1  UNL1       -0.1272
     12 N          64.8565   92.0817   12.9501 N.ar    1  UNL1       -0.1493
     13 C          64.5959   91.7844   11.5031 C.ar    1  UNL1        0.0995
     14 C          65.3737   92.3220   10.3386 C.3     1  UNL1        0.0557
     15 C          63.4210   90.8551   11.4251 C.ar    1  UNL1        0.1101
     16 N          62.7149   90.2255   10.2611 N.ar    1  UNL1       -0.3484
     17 H          63.0204   90.4074    9.3430 H       1  UNL1        0.1661
     18 C          63.2774   85.1111    8.4152 C.3     1  UNL1        0.0725
     19 C          62.7307   85.3827    9.7853 C.ar    1  UNL1        0.1248
     20 O          63.1901   84.7412   11.0610 O.2     1  UNL1       -0.4546
     21 C          62.3719   85.3056   12.1845 C.ar    1  UNL1        0.1792
     22 C          61.4069   86.2959   11.6031 C.ar    1  UNL1        0.0448
     23 C          61.6287   86.3436   10.1204 C.ar    1  UNL1        0.0512
     24 O          58.6334   89.7754    6.2151 O.3     1  UNL1       -0.4724
     25 C          59.3807   90.7122    5.3130 C.3     1  UNL1        0.2211
     26 C          58.7129   91.9549    4.8032 C.3     1  UNL1        0.0995
     27 N          57.2242   92.1041    4.9104 N.3     1  UNL1       -0.3190
     28 H          56.9434   93.0026    4.5176 H       1  UNL1        0.1189
     29 H          56.9478   92.0605    5.8912 H       1  UNL1        0.1189
     30 C          59.5338   93.0484    4.1862 C.3     1  UNL1        0.0472
     31 C          60.4573   92.7401    3.0451 C.2     1  UNL1       -0.0005
     32 C          61.8415   92.1738    3.1594 C.2     1  UNL1        0.0942
     33 N          62.3984   92.0277    1.7743 N.2     1  UNL1       -0.2482
     34 C          61.3583   92.5038    0.8040 C.2     1  UNL1        0.0631
     35 C          61.3486   92.5933   -0.6933 C.3     1  UNL1        0.0717
     36 C          60.1392   93.1231   -1.4051 C.2     1  UNL1       -0.0198
     37 C          58.9396   93.5633   -0.6197 C.2     1  UNL1       -0.0042
     38 C          58.9492   93.4738    0.8776 C.2     1  UNL1        0.0006
     39 C          60.1586   92.9441    1.5894 C.2     1  UNL1        0.0114
@<TRIPOS>BOND
     1    18    19    1
     2    19    20   ar
     3    20    21   ar
     4    21    22   ar
     5    22    23   ar
     6    23     1    1
     7     1     2   ar
     8     2     3   ar
     9     3     4   ar
    10     4    24    1
    11    24    25    1
    12    25    26    1
    13    26    27    1
    14    26    30    1
    15    30    31    1
    16    31    32    2
    17    32    33    1
    18    33    34    2
    19    34    35    1
    20    35    36    1
    21    36    37    2
    22    37    38    1
    23    38    39    2
    24     4     5   ar
    25     5     6   ar
    26     6     7    1
    27     7     8   ar
    28     8     9   ar
    29     9    10   ar
    30    10    11   ar
    31    11    12   ar
    32    12    13   ar
    33    13    14    1
    34    13    15   ar
    35    15    16   ar
    36    23    19   ar
    37     6     1   ar
    38    16     7   ar
    39    39    31    1
    40    15    10    1
    41    39    34    1
    42    27    28    1
    43    27    29    1
    44    16    17    1
