@<TRIPOS>MOLECULE
*****
 34 38 0 0 0
SMALL
GASTEIGER

@<TRIPOS>ATOM
      1 C          63.1906   86.5114   12.8944 C.2     1  UNL1        0.2507
      2 O          63.7044   87.4427   13.9520 O.2     1  UNL1       -0.2698
      3 N          62.4782   87.0600   11.6937 N.am    1  UNL1       -0.2723
      4 C          61.9643   86.1287   10.6361 C.3     1  UNL1        0.1257
      5 C          61.2519   86.6773    9.4354 C.3     1  UNL1        0.1637
      6 O          61.0534   88.1573    9.2925 O.3     1  UNL1       -0.3502
      7 C          61.5672   89.0885   10.3501 C.3     1  UNL1        0.1622
      8 C          62.2796   88.5399   11.5508 C.3     1  UNL1        0.1096
      9 C          63.9152   82.7190   11.9763 C.ar    1  UNL1        0.1494
     10 C          63.7167   84.1989   11.8333 C.ar    1  UNL1        0.0439
     11 C          63.3891   85.0314   13.0373 C.ar    1  UNL1        0.0760
     12 C          63.2601   84.3841   14.3843 C.ar    1  UNL1        0.1083
     13 C          63.4586   82.9042   14.5272 C.ar    1  UNL1        0.0355
     14 C          63.7862   82.0717   13.3233 C.ar    1  UNL1        0.0931
     15 CL         63.9847   80.5917   13.4662 Cl      1  UNL1       -0.0790
     16 N          62.9325   85.2167   15.5883 N.ar    1  UNL1       -0.1476
     17 N          63.9167   85.9682   16.4348 N.ar    1  UNL1       -0.1447
     18 C          63.1558   86.6599   17.5268 C.ar    1  UNL1        0.1446
     19 C          61.7012   86.3358   17.3551 C.ar    1  UNL1        0.1446
     20 N          61.5633   85.4439   16.1571 N.ar    1  UNL1       -0.1447
     21 C          63.2398   80.9038   10.2446 C.3     1  UNL1        0.2525
     22 O          64.2428   81.8864   10.7723 O.3     1  UNL1       -0.4706
     23 C          62.7935   89.4712   12.6085 C.3     1  UNL1        0.0488
     24 C          63.7645   90.5554   12.2457 C.ar    1  UNL1       -0.0189
     25 C          63.6845   91.2147   10.9008 C.ar    1  UNL1       -0.0041
     26 C          64.6556   92.2989   10.5380 C.ar    1  UNL1        0.0013
     27 C          65.7067   92.7237   11.5203 C.ar    1  UNL1        0.0209
     28 C          65.7867   92.0644   12.8652 C.ar    1  UNL1        0.1026
     29 C          64.8156   90.9802   13.2279 C.ar    1  UNL1        0.0167
     30 N          66.8378   92.4892   13.8474 N.ar    1  UNL1       -0.1478
     31 N          68.2942   92.1351   13.7885 N.ar    1  UNL1       -0.1447
     32 C          68.9736   92.7697   14.9656 C.ar    1  UNL1        0.1446
     33 C          67.9369   93.5160   15.7521 C.ar    1  UNL1        0.1446
     34 N          66.6170   93.3426   15.0610 N.ar    1  UNL1       -0.1447
@<TRIPOS>BOND
     1    21    22    1
     2    22     9    1
     3     9    10   ar
     4    10    11   ar
     5    11     1    1
     6     1     2    2
     7     1     3   am
     8     3     4    1
     9     4     5    1
    10     5     6    1
    11     6     7    1
    12     7     8    1
    13     8    23    1
    14    23    24    1
    15    24    25   ar
    16    25    26   ar
    17    26    27   ar
    18    27    28   ar
    19    28    30    1
    20    30    31   ar
    21    31    32   ar
    22    32    33   ar
    23    33    34   ar
    24    28    29   ar
    25    11    12   ar
    26    12    16    1
    27    16    17   ar
    28    17    18   ar
    29    18    19   ar
    30    19    20   ar
    31    12    13   ar
    32    13    14   ar
    33    14    15    1
    34    14     9   ar
    35     8     3    1
    36    29    24   ar
    37    20    16   ar
    38    34    30   ar
@<TRIPOS>MOLECULE
*****
 34 38 0 0 0
SMALL
GASTEIGER

@<TRIPOS>ATOM
      1 C          63.1206   87.2553   12.5468 C.2     1  UNL1        0.2507
      2 O          63.7605   87.6300   13.8506 O.2     1  UNL1       -0.2698
      3 N          62.4616   88.3075   11.7050 N.am    1  UNL1       -0.2723
      4 C          61.8217   87.9328   10.4011 C.3     1  UNL1        0.1257
      5 C          61.1628   88.9850    9.5593 C.3     1  UNL1        0.1637
      6 O          61.1437   90.4120   10.0214 O.3     1  UNL1       -0.3502
      7 C          61.7836   90.7867   11.3253 C.3     1  UNL1        0.1622
      8 C          62.4426   89.7344   12.1671 C.3     1  UNL1        0.1096
      9 C          63.1952   84.0885   10.1561 C.ar    1  UNL1        0.1494
     10 C          63.1762   85.5154   10.6181 C.ar    1  UNL1        0.0439
     11 C          63.1397   85.8284   12.0846 C.ar    1  UNL1        0.0760
     12 C          63.1221   84.7144   13.0891 C.ar    1  UNL1        0.1083
     13 C          63.1412   83.2875   12.6270 C.ar    1  UNL1        0.0355
     14 C          63.1777   82.9746   11.1605 C.ar    1  UNL1        0.0931
     15 CL         63.1968   81.5476   10.6983 Cl      1  UNL1       -0.0790
     16 N          63.0856   85.0275   14.5556 N.ar    1  UNL1       -0.1476
     17 N          61.8653   85.0234   15.4279 N.ar    1  UNL1       -0.1447
     18 C          62.2883   85.3929   16.8187 C.ar    1  UNL1        0.1446
     19 C          63.7702   85.6254   16.8060 C.ar    1  UNL1        0.1446
     20 N          64.2629   85.3995   15.4074 N.ar    1  UNL1       -0.1447
     21 C          62.8474   84.8247    7.6888 C.3     1  UNL1        0.2525
     22 O          63.2318   83.7754    8.6895 O.3     1  UNL1       -0.4706
     23 C          63.0825   90.1092   13.4710 C.3     1  UNL1        0.0488
     24 C          64.3898   90.8446   13.4809 C.ar    1  UNL1       -0.0189
     25 C          65.3379   90.6735   14.6306 C.ar    1  UNL1       -0.0041
     26 C          66.6452   91.4089   14.6405 C.ar    1  UNL1        0.0013
     27 C          67.0045   92.3154   13.5006 C.ar    1  UNL1        0.0209
     28 C          66.0564   92.4864   12.3508 C.ar    1  UNL1        0.1026
     29 C          64.7490   91.7510   12.3410 C.ar    1  UNL1        0.0167
     30 N          66.4156   93.3928   11.2110 N.ar    1  UNL1       -0.1478
     31 N          67.5619   93.2042   10.2620 N.ar    1  UNL1       -0.1447
     32 C          67.5464   94.3418    9.2845 C.ar    1  UNL1        0.1446
     33 C          66.3905   95.2335    9.6293 C.ar    1  UNL1        0.1446
     34 N          65.6916   94.6469   10.8199 N.ar    1  UNL1       -0.1447
@<TRIPOS>BOND
     1    21    22    1
     2    22     9    1
     3     9    10   ar
     4    10    11   ar
     5    11     1    1
     6     1     2    2
     7     1     3   am
     8     3     4    1
     9     4     5    1
    10     5     6    1
    11     6     7    1
    12     7     8    1
    13     8    23    1
    14    23    24    1
    15    24    25   ar
    16    25    26   ar
    17    26    27   ar
    18    27    28   ar
    19    28    30    1
    20    30    31   ar
    21    31    32   ar
    22    32    33   ar
    23    33    34   ar
    24    28    29   ar
    25    11    12   ar
    26    12    16    1
    27    16    17   ar
    28    17    18   ar
    29    18    19   ar
    30    19    20   ar
    31    12    13   ar
    32    13    14   ar
    33    14    15    1
    34    14     9   ar
    35     8     3    1
    36    29    24   ar
    37    20    16   ar
    38    34    30   ar
@<TRIPOS>MOLECULE
*****
 34 38 0 0 0
SMALL
GASTEIGER

@<TRIPOS>ATOM
      1 C          63.4030   88.0238   13.2118 C.2     1  UNL1        0.2507
      2 O          63.6217   89.1437   12.2383 O.2     1  UNL1       -0.2698
      3 N          63.3458   88.3095   14.6832 N.am    1  UNL1       -0.2723
      4 C          63.1270   87.1894   15.6568 C.3     1  UNL1        0.1257
      5 C          63.0698   87.4752   17.1282 C.3     1  UNL1        0.1637
      6 O          63.2314   88.8809   17.6261 O.3     1  UNL1       -0.3502
      7 C          63.4501   90.0009   16.6525 C.3     1  UNL1        0.1622
      8 C          63.5073   89.7152   15.1811 C.3     1  UNL1        0.1096
      9 C          63.8277   84.0922   12.8764 C.ar    1  UNL1        0.1494
     10 C          63.9893   85.4979   13.3742 C.ar    1  UNL1        0.0439
     11 C          63.2414   86.6180   12.7139 C.ar    1  UNL1        0.0760
     12 C          62.3320   86.3324   11.5558 C.ar    1  UNL1        0.1083
     13 C          62.1704   84.9267   11.0579 C.ar    1  UNL1        0.0355
     14 C          62.9183   83.8066   11.7182 C.ar    1  UNL1        0.0931
     15 CL         62.7567   82.4009   11.2203 Cl      1  UNL1       -0.0790
     16 N          61.5841   87.4526   10.8955 N.ar    1  UNL1       -0.1476
     17 N          60.3983   88.1756   11.4622 N.ar    1  UNL1       -0.1447
     18 C          59.9720   89.2163   10.4696 C.ar    1  UNL1        0.1446
     19 C          60.8944   89.1364    9.2894 C.ar    1  UNL1        0.1446
     20 N          61.8907   88.0464    9.5526 N.ar    1  UNL1       -0.1447
     21 C          63.8443   81.9907   14.4040 C.3     1  UNL1        0.2525
     22 O          64.5756   82.9720   13.5367 O.3     1  UNL1       -0.4706
     23 C          63.7261   90.8352   14.2076 C.3     1  UNL1        0.0488
     24 C          65.1102   91.3613   13.9683 C.ar    1  UNL1       -0.0189
     25 C          66.1872   91.1294   14.9864 C.ar    1  UNL1       -0.0041
     26 C          67.5713   91.6555   14.7471 C.ar    1  UNL1        0.0013
     27 C          67.8786   92.4137   13.4898 C.ar    1  UNL1        0.0209
     28 C          66.8016   92.6457   12.4717 C.ar    1  UNL1        0.1026
     29 C          65.4174   92.1195   12.7110 C.ar    1  UNL1        0.0167
     30 N          67.1089   93.4038   11.2145 N.ar    1  UNL1       -0.1478
     31 N          67.8059   92.8578   10.0037 N.ar    1  UNL1       -0.1447
     32 C          67.9008   93.9576    8.9881 C.ar    1  UNL1        0.1446
     33 C          67.2624   95.1834    9.5713 C.ar    1  UNL1        0.1446
     34 N          66.7729   94.8411   10.9472 N.ar    1  UNL1       -0.1447
@<TRIPOS>BOND
     1    21    22    1
     2    22     9    1
     3     9    10   ar
     4    10    11   ar
     5    11     1    1
     6     1     2    2
     7     1     3   am
     8     3     4    1
     9     4     5    1
    10     5     6    1
    11     6     7    1
    12     7     8    1
    13     8    23    1
    14    23    24    1
    15    24    25   ar
    16    25    26   ar
    17    26    27   ar
    18    27    28   ar
    19    28    30    1
    20    30    31   ar
    21    31    32   ar
    22    32    33   ar
    23    33    34   ar
    24    28    29   ar
    25    11    12   ar
    26    12    16    1
    27    16    17   ar
    28    17    18   ar
    29    18    19   ar
    30    19    20   ar
    31    12    13   ar
    32    13    14   ar
    33    14    15    1
    34    14     9   ar
    35     8     3    1
    36    29    24   ar
    37    20    16   ar
    38    34    30   ar
@<TRIPOS>MOLECULE
*****
 34 38 0 0 0
SMALL
GASTEIGER

@<TRIPOS>ATOM
      1 C          62.8556   88.9967   12.0101 C.2     1  UNL1        0.2507
      2 O          62.9093   87.7369   12.8225 O.2     1  UNL1       -0.2698
      3 N          61.9112   89.1010   10.8494 N.am    1  UNL1       -0.2723
      4 C          61.8576   90.3609   10.0370 C.3     1  UNL1        0.1257
      5 C          60.9132   90.4652    8.8763 C.3     1  UNL1        0.1637
      6 O          60.0224   89.3096    8.5281 O.3     1  UNL1       -0.3502
      7 C          60.0760   88.0498    9.3404 C.3     1  UNL1        0.1622
      8 C          61.0205   87.9455   10.5011 C.3     1  UNL1        0.1096
      9 C          65.0251   92.3004   11.6512 C.ar    1  UNL1        0.1494
     10 C          64.1344   91.1449   11.3029 C.ar    1  UNL1        0.0439
     11 C          63.7464   90.1523   12.3584 C.ar    1  UNL1        0.0760
     12 C          64.2492   90.3151   13.7622 C.ar    1  UNL1        0.1083
     13 C          65.1400   91.4706   14.1105 C.ar    1  UNL1        0.0355
     14 C          65.5279   92.4632   13.0550 C.ar    1  UNL1        0.0931
     15 CL         66.4187   93.6188   13.4033 Cl      1  UNL1       -0.0790
     16 N          63.8612   89.3224   14.8177 N.ar    1  UNL1       -0.1476
     17 N          64.3697   87.9161   14.9350 N.ar    1  UNL1       -0.1447
     18 C          63.7194   87.2862   16.1309 C.ar    1  UNL1        0.1446
     19 C          62.8090   88.3033   16.7529 C.ar    1  UNL1        0.1446
     20 N          62.8967   89.5617   15.9412 N.ar    1  UNL1       -0.1447
     21 C          66.7697   93.2201    9.9598 C.3     1  UNL1        0.2525
     22 O          65.4131   93.2931   10.5957 O.3     1  UNL1       -0.4706
     23 C          61.0741   86.6856   11.3135 C.3     1  UNL1        0.0488
     24 C          61.9562   85.5518   10.8818 C.ar    1  UNL1       -0.0189
     25 C          62.6520   85.6065    9.5540 C.ar    1  UNL1       -0.0041
     26 C          63.5340   84.4727    9.1223 C.ar    1  UNL1        0.0013
     27 C          63.7203   83.2842   10.0183 C.ar    1  UNL1        0.0209
     28 C          63.0245   83.2295   11.3461 C.ar    1  UNL1        0.1026
     29 C          62.1424   84.3634   11.7778 C.ar    1  UNL1        0.0167
     30 N          63.2108   82.0411   12.2421 N.ar    1  UNL1       -0.1478
     31 N          62.4103   80.7731   12.2027 N.ar    1  UNL1       -0.1447
     32 C          62.9350   79.8603   13.2711 C.ar    1  UNL1        0.1446
     33 C          64.0598   80.5642   13.9708 C.ar    1  UNL1        0.1446
     34 N          64.2302   81.9119   13.3348 N.ar    1  UNL1       -0.1447
@<TRIPOS>BOND
     1    21    22    1
     2    22     9    1
     3     9    10   ar
     4    10    11   ar
     5    11     1    1
     6     1     2    2
     7     1     3   am
     8     3     4    1
     9     4     5    1
    10     5     6    1
    11     6     7    1
    12     7     8    1
    13     8    23    1
    14    23    24    1
    15    24    25   ar
    16    25    26   ar
    17    26    27   ar
    18    27    28   ar
    19    28    30    1
    20    30    31   ar
    21    31    32   ar
    22    32    33   ar
    23    33    34   ar
    24    28    29   ar
    25    11    12   ar
    26    12    16    1
    27    16    17   ar
    28    17    18   ar
    29    18    19   ar
    30    19    20   ar
    31    12    13   ar
    32    13    14   ar
    33    14    15    1
    34    14     9   ar
    35     8     3    1
    36    29    24   ar
    37    20    16   ar
    38    34    30   ar
@<TRIPOS>MOLECULE
*****
 34 38 0 0 0
SMALL
GASTEIGER

@<TRIPOS>ATOM
      1 C          62.9563   89.6804   10.8226 C.2     1  UNL1        0.2507
      2 O          63.4487   88.9314    9.6200 O.2     1  UNL1       -0.2698
      3 N          61.6052   89.3724   11.3967 N.am    1  UNL1       -0.2723
      4 C          61.1127   90.1215   12.5994 C.3     1  UNL1        0.1257
      5 C          59.7616   89.8135   13.1734 C.3     1  UNL1        0.1637
      6 O          58.9028   88.7564   12.5447 O.3     1  UNL1       -0.3502
      7 C          59.3953   88.0074   11.3421 C.3     1  UNL1        0.1622
      8 C          60.7464   88.3154   10.7680 C.3     1  UNL1        0.1096
      9 C          64.9887   93.0519   11.3251 C.ar    1  UNL1        0.1494
     10 C          64.1301   91.9948   10.6964 C.ar    1  UNL1        0.0439
     11 C          63.8150   90.7375   11.4513 C.ar    1  UNL1        0.0760
     12 C          64.3587   90.5373   12.8349 C.ar    1  UNL1        0.1083
     13 C          65.2174   91.5943   13.4636 C.ar    1  UNL1        0.0355
     14 C          65.5324   92.8516   12.7087 C.ar    1  UNL1        0.0931
     15 CL         66.3911   93.9087   13.3373 Cl      1  UNL1       -0.0790
     16 N          64.0437   89.2799   13.5898 N.ar    1  UNL1       -0.1476
     17 N          63.8722   89.1629   15.0754 N.ar    1  UNL1       -0.1447
     18 C          63.5674   87.7296   15.3954 C.ar    1  UNL1        0.1446
     19 C          63.5503   86.9606   14.1076 C.ar    1  UNL1        0.1446
     20 N          63.8447   87.9188   12.9917 N.ar    1  UNL1       -0.1447
     21 C          66.5765   94.4125    9.7830 C.3     1  UNL1        0.2525
     22 O          65.3038   94.3092   10.5702 O.3     1  UNL1       -0.4706
     23 C          61.2389   87.5662    9.5653 C.3     1  UNL1        0.0488
     24 C          61.9770   86.2720    9.7383 C.ar    1  UNL1       -0.0189
     25 C          62.8138   85.7303    8.6175 C.ar    1  UNL1       -0.0041
     26 C          63.5520   84.4360    8.7904 C.ar    1  UNL1        0.0013
     27 C          63.4534   83.6834   10.0842 C.ar    1  UNL1        0.0209
     28 C          62.6165   84.2251   11.2051 C.ar    1  UNL1        0.1026
     29 C          61.8783   85.5194   11.0321 C.ar    1  UNL1        0.0167
     30 N          62.5179   83.4726   12.4988 N.ar    1  UNL1       -0.1478
     31 N          62.3736   81.9868   12.6458 N.ar    1  UNL1       -0.1447
     32 C          62.3127   81.6696   14.1106 C.ar    1  UNL1        0.1446
     33 C          62.4193   82.9594   14.8690 C.ar    1  UNL1        0.1446
     34 N          62.5461   84.0737   13.8728 N.ar    1  UNL1       -0.1447
@<TRIPOS>BOND
     1    21    22    1
     2    22     9    1
     3     9    10   ar
     4    10    11   ar
     5    11     1    1
     6     1     2    2
     7     1     3   am
     8     3     4    1
     9     4     5    1
    10     5     6    1
    11     6     7    1
    12     7     8    1
    13     8    23    1
    14    23    24    1
    15    24    25   ar
    16    25    26   ar
    17    26    27   ar
    18    27    28   ar
    19    28    30    1
    20    30    31   ar
    21    31    32   ar
    22    32    33   ar
    23    33    34   ar
    24    28    29   ar
    25    11    12   ar
    26    12    16    1
    27    16    17   ar
    28    17    18   ar
    29    18    19   ar
    30    19    20   ar
    31    12    13   ar
    32    13    14   ar
    33    14    15    1
    34    14     9   ar
    35     8     3    1
    36    29    24   ar
    37    20    16   ar
    38    34    30   ar
@<TRIPOS>MOLECULE
*****
 34 38 0 0 0
SMALL
GASTEIGER

@<TRIPOS>ATOM
      1 C          63.0985   87.8304   12.5212 C.2     1  UNL1        0.2507
      2 O          63.0610   88.7356   11.3257 O.2     1  UNL1       -0.2698
      3 N          63.2066   88.4123   13.8995 N.am    1  UNL1       -0.2723
      4 C          63.2441   87.5070   15.0950 C.3     1  UNL1        0.1257
      5 C          63.3523   88.0889   16.4733 C.3     1  UNL1        0.1637
      6 O          63.4229   89.5761   16.6560 O.3     1  UNL1       -0.3502
      7 C          63.3854   90.4813   15.4606 C.3     1  UNL1        0.1622
      8 C          63.2773   89.8994   14.0823 C.3     1  UNL1        0.1096
      9 C          63.7621   83.9525   13.0418 C.ar    1  UNL1        0.1494
     10 C          63.8327   85.4396   13.2247 C.ar    1  UNL1        0.0439
     11 C          63.0279   86.3432   12.3384 C.ar    1  UNL1        0.0760
     12 C          62.1523   85.7598   11.2693 C.ar    1  UNL1        0.1083
     13 C          62.0816   84.2726   11.0865 C.ar    1  UNL1        0.0355
     14 C          62.8865   83.3690   11.9727 C.ar    1  UNL1        0.0931
     15 CL         62.8158   81.8818   11.7899 Cl      1  UNL1       -0.0790
     16 N          61.3474   86.6635   10.3830 N.ar    1  UNL1       -0.1476
     17 N          60.2308   87.5636   10.8226 N.ar    1  UNL1       -0.1447
     18 C          59.7111   88.2822    9.6129 C.ar    1  UNL1        0.1446
     19 C          60.5064   87.8262    8.4256 C.ar    1  UNL1        0.1446
     20 N          61.5177   86.8258    8.9016 N.ar    1  UNL1       -0.1447
     21 C          64.1901   82.8827   15.3705 C.3     1  UNL1        0.2525
     22 O          64.5670   83.0487   13.9281 O.3     1  UNL1       -0.4706
     23 C          63.2398   90.8047   12.8868 C.3     1  UNL1        0.0488
     24 C          64.4611   91.5835   12.4972 C.ar    1  UNL1       -0.0189
     25 C          64.6370   92.0433   11.0803 C.ar    1  UNL1       -0.0041
     26 C          65.8583   92.8221   10.6906 C.ar    1  UNL1        0.0013
     27 C          66.9038   93.1410   11.7179 C.ar    1  UNL1        0.0209
     28 C          66.7280   92.6812   13.1348 C.ar    1  UNL1        0.1026
     29 C          65.5066   91.9024   13.5244 C.ar    1  UNL1        0.0167
     30 N          67.7734   93.0001   14.1621 N.ar    1  UNL1       -0.1478
     31 N          67.5965   93.8973   15.3511 N.ar    1  UNL1       -0.1447
     32 C          68.8931   93.9295   16.1045 C.ar    1  UNL1        0.1446
     33 C          69.8714   93.0521   15.3812 C.ar    1  UNL1        0.1446
     34 N          69.1794   92.4777   14.1807 N.ar    1  UNL1       -0.1447
@<TRIPOS>BOND
     1    21    22    1
     2    22     9    1
     3     9    10   ar
     4    10    11   ar
     5    11     1    1
     6     1     2    2
     7     1     3   am
     8     3     4    1
     9     4     5    1
    10     5     6    1
    11     6     7    1
    12     7     8    1
    13     8    23    1
    14    23    24    1
    15    24    25   ar
    16    25    26   ar
    17    26    27   ar
    18    27    28   ar
    19    28    30    1
    20    30    31   ar
    21    31    32   ar
    22    32    33   ar
    23    33    34   ar
    24    28    29   ar
    25    11    12   ar
    26    12    16    1
    27    16    17   ar
    28    17    18   ar
    29    18    19   ar
    30    19    20   ar
    31    12    13   ar
    32    13    14   ar
    33    14    15    1
    34    14     9   ar
    35     8     3    1
    36    29    24   ar
    37    20    16   ar
    38    34    30   ar
