@<TRIPOS>MOLECULE
*****
 40 43 0 0 0
SMALL
GASTEIGER

@<TRIPOS>ATOM
      1 N          63.9803   90.7675   13.5119 N.am    1  UNL1       -0.2770
      2 C          62.8054   90.2500   12.7363 C.2     1  UNL1        0.2253
      3 O          61.7890   89.3755   13.4089 O.2     1  UNL1       -0.2749
      4 C          62.6468   90.6068   11.2880 C.3     1  UNL1        0.0766
      5 C          61.4284   89.7534   11.4810 C.3     1  UNL1        0.0095
      6 C          63.6631   91.4812   10.6154 C.3     1  UNL1        0.0154
      7 C          64.8380   91.9987   11.3910 C.3     1  UNL1        0.0452
      8 C          64.9966   91.6419   12.8393 C.3     1  UNL1        0.1018
      9 C          65.8544   92.8732   10.7184 C.ar    1  UNL1       -0.0197
     10 C          67.0828   92.2641   10.1102 C.ar    1  UNL1       -0.0042
     11 C          68.0992   93.1385    9.4375 C.ar    1  UNL1        0.0005
     12 C          67.8871   94.6220    9.3731 C.ar    1  UNL1        0.0114
     13 C          66.6586   95.2311    9.9814 C.ar    1  UNL1        0.0574
     14 CL         66.4465   96.7147    9.9170 Cl      1  UNL1       -0.0823
     15 C          65.6423   94.3567   10.6540 C.ar    1  UNL1        0.0072
     16 C          66.1716   92.1595   13.6149 C.ar    1  UNL1       -0.0039
     17 C          67.3659   91.2809   13.8425 C.ar    1  UNL1       -0.0018
     18 C          68.5408   91.7984   14.6181 C.ar    1  UNL1        0.0111
     19 C          68.5216   93.1946   15.1661 C.ar    1  UNL1        0.0577
     20 CL         69.6965   93.7122   15.9417 Cl      1  UNL1       -0.0822
     21 C          67.3273   94.0733   14.9385 C.ar    1  UNL1        0.0111
     22 C          66.1523   93.5557   14.1629 C.ar    1  UNL1       -0.0018
     23 C          64.1389   90.4107   14.9602 C.3     1  UNL1        0.0991
     24 C          64.5158   92.1126   16.8867 C.3     1  UNL1        0.0018
     25 C          63.5856   91.3159   16.0206 C.3     1  UNL1        0.0216
     26 C          64.8508   89.1487   15.3481 C.3     1  UNL1        0.1703
     27 S          64.0645   87.9469   15.7814 S.O2    1  UNL1       -0.0115
     28 O          64.6711   87.1480   14.6661 O.2     1  UNL1       -0.1730
     29 O          63.4580   88.7459   16.8966 O.2     1  UNL1       -0.1730
     30 C          63.2783   86.7452   16.2146 C.3     1  UNL1        0.1108
     31 C          62.6591   87.5487   17.3196 C.3     1  UNL1        0.0236
     32 C          63.8976   85.9417   15.1097 C.3     1  UNL1        0.0236
     33 C          62.4921   85.5435   16.6479 C.3     1  UNL1        0.0236
     34 C          62.0650   90.6672    9.9068 C.3     1  UNL1        0.0757
     35 C          61.3658   89.4698    9.3345 C.ar    1  UNL1        0.1578
     36 N          61.7973   88.0412    9.4857 N.ar    1  UNL1       -0.1129
     37 N          60.8106   87.1792    8.7551 N.ar    1  UNL1       -0.0232
     38 N          59.7694   88.0752    8.1525 N.ar    1  UNL1       -0.0466
     39 N          60.1125   89.4908    8.5105 N.ar    1  UNL1       -0.2422
     40 H          59.6044   90.2929    8.2504 H       1  UNL1        0.1920
@<TRIPOS>BOND
     1    24    25    1
     2    23    25    1
     3    23    26    1
     4    26    27    1
     5    27    28    2
     6    27    29    2
     7    27    30    1
     8    30    31    1
     9    30    32    1
    10    30    33    1
    11    23     1    1
    12     1     2   am
    13     2     3    2
    14     2     4    1
    15     4     5    1
    16     4    34    1
    17    34    35    1
    18    35    36   ar
    19    36    37   ar
    20    37    38   ar
    21    38    39   ar
    22     4     6    1
    23     6     7    1
    24     7     9    1
    25     9    10   ar
    26    10    11   ar
    27    11    12   ar
    28    12    13   ar
    29    13    14    1
    30    13    15   ar
    31     7     8    1
    32     8    16    1
    33    16    17   ar
    34    17    18   ar
    35    18    19   ar
    36    19    20    1
    37    19    21   ar
    38    21    22   ar
    39     8     1    1
    40    22    16   ar
    41    39    35   ar
    42    15     9   ar
    43    39    40    1
@<TRIPOS>MOLECULE
*****
 40 43 0 0 0
SMALL
GASTEIGER

@<TRIPOS>ATOM
      1 N          63.8152   85.8254   13.2465 N.am    1  UNL1       -0.2770
      2 C          63.8326   87.2510   13.7126 C.2     1  UNL1        0.2253
      3 O          64.3919   87.5922   15.0620 O.2     1  UNL1       -0.2749
      4 C          63.2909   88.3356   12.8293 C.3     1  UNL1        0.0766
      5 C          63.7129   89.1518   14.0149 C.3     1  UNL1        0.0095
      6 C          62.7317   87.9945   11.4799 C.3     1  UNL1        0.0154
      7 C          62.7142   86.5689   11.0138 C.3     1  UNL1        0.0452
      8 C          63.2560   85.4843   11.8972 C.3     1  UNL1        0.1018
      9 C          62.1550   86.2277    9.6644 C.ar    1  UNL1       -0.0197
     10 C          62.9969   85.4851    8.6695 C.ar    1  UNL1       -0.0042
     11 C          62.4376   85.1440    7.3201 C.ar    1  UNL1        0.0005
     12 C          61.0365   85.5455    6.9655 C.ar    1  UNL1        0.0114
     13 C          60.1946   86.2881    7.9605 C.ar    1  UNL1        0.0574
     14 CL         58.7935   86.6896    7.6060 Cl      1  UNL1       -0.0823
     15 C          60.7539   86.6292    9.3098 C.ar    1  UNL1        0.0072
     16 C          63.2385   84.0586   11.4310 C.ar    1  UNL1       -0.0039
     17 C          64.4982   83.4188   10.9271 C.ar    1  UNL1       -0.0018
     18 C          64.4807   81.9932   10.4610 C.ar    1  UNL1        0.0111
     19 C          63.2036   81.2074   10.4988 C.ar    1  UNL1        0.0577
     20 CL         63.1861   79.7818   10.0327 Cl      1  UNL1       -0.0822
     21 C          61.9439   81.8472   11.0027 C.ar    1  UNL1        0.0111
     22 C          61.9614   83.2728   11.4688 C.ar    1  UNL1       -0.0018
     23 C          64.3569   84.7409   14.1299 C.3     1  UNL1        0.0991
     24 C          66.7539   85.3296   14.9409 C.3     1  UNL1        0.0018
     25 C          65.8291   84.4540   14.1484 C.3     1  UNL1        0.0216
     26 C          63.4265   83.9432   14.9947 C.3     1  UNL1        0.1703
     27 S          63.0226   82.5583   14.5836 S.O2    1  UNL1       -0.0115
     28 O          61.5783   82.9367   14.7283 O.2     1  UNL1       -0.1730
     29 O          64.4669   82.1800   14.4390 O.2     1  UNL1       -0.1730
     30 C          62.6187   81.1735   14.1725 C.3     1  UNL1        0.1108
     31 C          64.0580   80.8239   13.9359 C.3     1  UNL1        0.0236
     32 C          61.1793   81.5230   14.4092 C.3     1  UNL1        0.0236
     33 C          62.2147   79.7886   13.7615 C.3     1  UNL1        0.0236
     34 C          62.8957   89.7036   12.3578 C.3     1  UNL1        0.0757
     35 C          61.4907   89.9625   11.9007 C.ar    1  UNL1        0.1578
     36 N          61.0814   90.4544   10.5441 N.ar    1  UNL1       -0.1129
     37 N          59.5860   90.5709   10.5249 N.ar    1  UNL1       -0.0232
     38 N          59.0711   90.1508   11.8698 N.ar    1  UNL1       -0.0466
     39 N          60.2482   89.7749   12.7200 N.ar    1  UNL1       -0.2422
     40 H          60.2118   89.4602   13.6521 H       1  UNL1        0.1920
@<TRIPOS>BOND
     1    24    25    1
     2    23    25    1
     3    23    26    1
     4    26    27    1
     5    27    28    2
     6    27    29    2
     7    27    30    1
     8    30    31    1
     9    30    32    1
    10    30    33    1
    11    23     1    1
    12     1     2   am
    13     2     3    2
    14     2     4    1
    15     4     5    1
    16     4    34    1
    17    34    35    1
    18    35    36   ar
    19    36    37   ar
    20    37    38   ar
    21    38    39   ar
    22     4     6    1
    23     6     7    1
    24     7     9    1
    25     9    10   ar
    26    10    11   ar
    27    11    12   ar
    28    12    13   ar
    29    13    14    1
    30    13    15   ar
    31     7     8    1
    32     8    16    1
    33    16    17   ar
    34    17    18   ar
    35    18    19   ar
    36    19    20    1
    37    19    21   ar
    38    21    22   ar
    39     8     1    1
    40    22    16   ar
    41    39    35   ar
    42    15     9   ar
    43    39    40    1
@<TRIPOS>MOLECULE
*****
 40 43 0 0 0
SMALL
GASTEIGER

@<TRIPOS>ATOM
      1 N          63.1043   90.2519   11.9337 N.am    1  UNL1       -0.2770
      2 C          63.3043   91.1308   10.7349 C.2     1  UNL1        0.2253
      3 O          62.4978   90.8986    9.4916 O.2     1  UNL1       -0.2749
      4 C          64.3109   92.2421   10.7792 C.3     1  UNL1        0.0766
      5 C          63.7913   92.4168    9.3830 C.3     1  UNL1        0.0095
      6 C          65.1174   92.4744   12.0224 C.3     1  UNL1        0.0154
      7 C          64.9173   91.5954   13.2212 C.3     1  UNL1        0.0452
      8 C          63.9108   90.4841   13.1769 C.3     1  UNL1        0.1018
      9 C          65.7239   91.8276   14.4645 C.ar    1  UNL1       -0.0197
     10 C          65.0319   92.0841   15.7704 C.ar    1  UNL1       -0.0042
     11 C          65.8384   92.3164   17.0137 C.ar    1  UNL1        0.0005
     12 C          67.3369   92.2921   16.9510 C.ar    1  UNL1        0.0114
     13 C          68.0289   92.0356   15.6450 C.ar    1  UNL1        0.0574
     14 CL         69.5274   92.0113   15.5824 Cl      1  UNL1       -0.0823
     15 C          67.2223   91.8034   14.4018 C.ar    1  UNL1        0.0072
     16 C          63.7107   89.6051   14.3759 C.ar    1  UNL1       -0.0039
     17 C          64.3340   88.2414   14.4184 C.ar    1  UNL1       -0.0018
     18 C          64.1340   87.3624   15.6173 C.ar    1  UNL1        0.0111
     19 C          63.3107   87.8472   16.7737 C.ar    1  UNL1        0.0577
     20 CL         63.1107   86.9682   17.9726 Cl      1  UNL1       -0.0822
     21 C          62.6874   89.2109   16.7312 C.ar    1  UNL1        0.0111
     22 C          62.8874   90.0899   15.5322 C.ar    1  UNL1       -0.0018
     23 C          62.0977   89.1406   11.8894 C.3     1  UNL1        0.0991
     24 C          59.8062   90.2890   11.4652 C.3     1  UNL1        0.0018
     25 C          60.6780   89.3979   12.2994 C.3     1  UNL1        0.0216
     26 C          62.5109   87.7721   11.4352 C.3     1  UNL1        0.1703
     27 S          61.8543   87.1488   10.2392 S.O2    1  UNL1       -0.0115
     28 O          62.7248   87.9689    9.3338 O.2     1  UNL1       -0.1730
     29 O          60.9838   86.3286   11.1445 O.2     1  UNL1       -0.1730
     30 C          61.1977   86.5255    9.0432 C.3     1  UNL1        0.1108
     31 C          59.9182   87.2339    9.3764 C.3     1  UNL1        0.0236
     32 C          62.4771   85.8170    8.7100 C.3     1  UNL1        0.0236
     33 C          60.5411   85.9022    7.8472 C.3     1  UNL1        0.0236
     34 C          65.1370   93.4140   10.3385 C.3     1  UNL1        0.0757
     35 C          66.6055   93.2433   10.0847 C.ar    1  UNL1        0.1578
     36 N          67.5887   94.3452    9.8217 N.ar    1  UNL1       -0.1129
     37 N          68.9394   93.7236    9.6237 N.ar    1  UNL1       -0.0232
     38 N          68.7910   92.2376    9.7644 N.ar    1  UNL1       -0.0466
     39 N          67.3486   91.9408   10.0492 N.ar    1  UNL1       -0.2422
     40 H          66.9582   91.0478   10.1885 H       1  UNL1        0.1920
@<TRIPOS>BOND
     1    24    25    1
     2    23    25    1
     3    23    26    1
     4    26    27    1
     5    27    28    2
     6    27    29    2
     7    27    30    1
     8    30    31    1
     9    30    32    1
    10    30    33    1
    11    23     1    1
    12     1     2   am
    13     2     3    2
    14     2     4    1
    15     4     5    1
    16     4    34    1
    17    34    35    1
    18    35    36   ar
    19    36    37   ar
    20    37    38   ar
    21    38    39   ar
    22     4     6    1
    23     6     7    1
    24     7     9    1
    25     9    10   ar
    26    10    11   ar
    27    11    12   ar
    28    12    13   ar
    29    13    14    1
    30    13    15   ar
    31     7     8    1
    32     8    16    1
    33    16    17   ar
    34    17    18   ar
    35    18    19   ar
    36    19    20    1
    37    19    21   ar
    38    21    22   ar
    39     8     1    1
    40    22    16   ar
    41    39    35   ar
    42    15     9   ar
    43    39    40    1
@<TRIPOS>MOLECULE
*****
 40 43 0 0 0
SMALL
GASTEIGER

@<TRIPOS>ATOM
      1 N          63.7002   86.0067   13.2773 N.am    1  UNL1       -0.2770
      2 C          63.6589   87.4304   13.7477 C.2     1  UNL1        0.2253
      3 O          64.2026   87.7901   15.0986 O.2     1  UNL1       -0.2749
      4 C          63.0739   88.4946   12.8671 C.3     1  UNL1        0.0766
      5 C          63.4612   89.3237   14.0556 C.3     1  UNL1        0.0095
      6 C          62.5301   88.1350   11.5162 C.3     1  UNL1        0.0154
      7 C          62.5714   86.7112   11.0459 C.3     1  UNL1        0.0452
      8 C          63.1564   85.6471   11.9264 C.3     1  UNL1        0.1018
      9 C          62.0277   86.3516    9.6949 C.ar    1  UNL1       -0.0197
     10 C          62.8889   85.6161    8.7113 C.ar    1  UNL1       -0.0042
     11 C          62.3451   85.2565    7.3603 C.ar    1  UNL1        0.0005
     12 C          60.9402   85.6323    6.9930 C.ar    1  UNL1        0.0114
     13 C          60.0790   86.3678    7.9767 C.ar    1  UNL1        0.0574
     14 CL         58.6740   86.7436    7.6094 Cl      1  UNL1       -0.0823
     15 C          60.6227   86.7274    9.3276 C.ar    1  UNL1        0.0072
     16 C          63.1977   84.2233   11.4560 C.ar    1  UNL1       -0.0039
     17 C          61.9510   83.3896   11.4786 C.ar    1  UNL1       -0.0018
     18 C          61.9922   81.9659   11.0082 C.ar    1  UNL1        0.0111
     19 C          63.2802   81.3758   10.5152 C.ar    1  UNL1        0.0577
     20 CL         63.3214   79.9521   10.0448 Cl      1  UNL1       -0.0822
     21 C          64.5269   82.2096   10.4926 C.ar    1  UNL1        0.0111
     22 C          64.4857   83.6334   10.9630 C.ar    1  UNL1       -0.0018
     23 C          64.2852   84.9426   14.1579 C.3     1  UNL1        0.0991
     24 C          66.6513   85.5676   15.0301 C.3     1  UNL1        0.0018
     25 C          65.7672   84.7119   14.1721 C.3     1  UNL1        0.0216
     26 C          63.3882   84.1092   15.0243 C.3     1  UNL1        0.1703
     27 S          63.0441   82.7069   14.6176 S.O2    1  UNL1       -0.0115
     28 O          64.5041   82.3760   14.5233 O.2     1  UNL1       -0.1730
     29 O          61.5841   83.0378   14.7119 O.2     1  UNL1       -0.1730
     30 C          62.7001   81.3047   14.2110 C.3     1  UNL1        0.1108
     31 C          61.2468   81.5935   14.4445 C.3     1  UNL1        0.0236
     32 C          64.1533   81.0158   13.9775 C.3     1  UNL1        0.0236
     33 C          62.3560   79.9024   13.8044 C.3     1  UNL1        0.0236
     34 C          62.6234   89.8467   12.3994 C.3     1  UNL1        0.0757
     35 C          63.6371   90.8989   12.0597 C.ar    1  UNL1        0.1578
     36 N          64.4306   91.7083   13.0421 N.ar    1  UNL1       -0.1129
     37 N          65.3192   92.6361   12.2676 N.ar    1  UNL1       -0.0232
     38 N          65.0748   92.4000   10.8066 N.ar    1  UNL1       -0.0466
     39 N          64.0352   91.3264   10.6781 N.ar    1  UNL1       -0.2422
     40 H          63.6770   90.9656    9.8350 H       1  UNL1        0.1920
@<TRIPOS>BOND
     1    24    25    1
     2    23    25    1
     3    23    26    1
     4    26    27    1
     5    27    28    2
     6    27    29    2
     7    27    30    1
     8    30    31    1
     9    30    32    1
    10    30    33    1
    11    23     1    1
    12     1     2   am
    13     2     3    2
    14     2     4    1
    15     4     5    1
    16     4    34    1
    17    34    35    1
    18    35    36   ar
    19    36    37   ar
    20    37    38   ar
    21    38    39   ar
    22     4     6    1
    23     6     7    1
    24     7     9    1
    25     9    10   ar
    26    10    11   ar
    27    11    12   ar
    28    12    13   ar
    29    13    14    1
    30    13    15   ar
    31     7     8    1
    32     8    16    1
    33    16    17   ar
    34    17    18   ar
    35    18    19   ar
    36    19    20    1
    37    19    21   ar
    38    21    22   ar
    39     8     1    1
    40    22    16   ar
    41    39    35   ar
    42    15     9   ar
    43    39    40    1
@<TRIPOS>MOLECULE
*****
 40 43 0 0 0
SMALL
GASTEIGER

@<TRIPOS>ATOM
      1 N          63.7465   85.8776   13.2065 N.am    1  UNL1       -0.2770
      2 C          63.7932   87.3296   13.5798 C.2     1  UNL1        0.2253
      3 O          64.3388   87.7437   14.9143 O.2     1  UNL1       -0.2749
      4 C          63.2944   88.3676   12.6186 C.3     1  UNL1        0.0766
      5 C          63.7178   89.2483   13.7566 C.3     1  UNL1        0.0095
      6 C          62.7488   87.9535   11.2842 C.3     1  UNL1        0.0154
      7 C          62.7021   86.5015   10.9109 C.3     1  UNL1        0.0452
      8 C          63.2009   85.4635   11.8720 C.3     1  UNL1        0.1018
      9 C          62.1564   86.0873    9.5763 C.ar    1  UNL1       -0.0197
     10 C          63.0195   85.3212    8.6182 C.ar    1  UNL1       -0.0042
     11 C          62.4739   84.9071    7.2837 C.ar    1  UNL1        0.0005
     12 C          61.0652   85.2591    6.9074 C.ar    1  UNL1        0.0114
     13 C          60.2021   86.0253    7.8656 C.ar    1  UNL1        0.0574
     14 CL         58.7934   86.3774    7.4893 Cl      1  UNL1       -0.0823
     15 C          60.7477   86.4394    9.2000 C.ar    1  UNL1        0.0072
     16 C          63.1541   84.0114   11.4986 C.ar    1  UNL1       -0.0039
     17 C          64.0882   83.4750   10.4547 C.ar    1  UNL1       -0.0018
     18 C          64.0415   82.0230   10.0814 C.ar    1  UNL1        0.0111
     19 C          63.0606   81.1074   10.7519 C.ar    1  UNL1        0.0577
     20 CL         63.0139   79.6554   10.3785 Cl      1  UNL1       -0.0822
     21 C          62.1265   81.6438   11.7958 C.ar    1  UNL1        0.0111
     22 C          62.1733   83.0959   12.1692 C.ar    1  UNL1       -0.0018
     23 C          64.2453   84.8396   14.1676 C.3     1  UNL1        0.0991
     24 C          66.7922   85.0364   14.6413 C.3     1  UNL1        0.0018
     25 C          65.6376   84.2985   14.0311 C.3     1  UNL1        0.0216
     26 C          63.3519   84.3428   15.2653 C.3     1  UNL1        0.1703
     27 S          62.9648   85.2576   16.3892 S.O2    1  UNL1       -0.0115
     28 O          64.3920   85.2961   16.8494 O.2     1  UNL1       -0.1730
     29 O          61.5377   85.2192   15.9291 O.2     1  UNL1       -0.1730
     30 C          62.5778   86.1725   17.5132 C.3     1  UNL1        0.1108
     31 C          63.9095   85.9382   18.1625 C.3     1  UNL1        0.0236
     32 C          61.2460   86.4068   16.8639 C.3     1  UNL1        0.0236
     33 C          62.1907   87.0873   18.6371 C.3     1  UNL1        0.0236
     34 C          62.9426   89.7114   12.0528 C.3     1  UNL1        0.0757
     35 C          61.5134   90.0430   11.7408 C.ar    1  UNL1        0.1578
     36 N          61.0110   90.6782   10.4782 N.ar    1  UNL1       -0.1129
     37 N          59.5227   90.8254   10.5938 N.ar    1  UNL1       -0.0232
     38 N          59.1053   90.2812   11.9278 N.ar    1  UNL1       -0.0466
     39 N          60.3355   89.7977   12.6367 N.ar    1  UNL1       -0.2422
     40 H          60.3648   89.3908   13.5327 H       1  UNL1        0.1920
@<TRIPOS>BOND
     1    24    25    1
     2    23    25    1
     3    23    26    1
     4    26    27    1
     5    27    28    2
     6    27    29    2
     7    27    30    1
     8    30    31    1
     9    30    32    1
    10    30    33    1
    11    23     1    1
    12     1     2   am
    13     2     3    2
    14     2     4    1
    15     4     5    1
    16     4    34    1
    17    34    35    1
    18    35    36   ar
    19    36    37   ar
    20    37    38   ar
    21    38    39   ar
    22     4     6    1
    23     6     7    1
    24     7     9    1
    25     9    10   ar
    26    10    11   ar
    27    11    12   ar
    28    12    13   ar
    29    13    14    1
    30    13    15   ar
    31     7     8    1
    32     8    16    1
    33    16    17   ar
    34    17    18   ar
    35    18    19   ar
    36    19    20    1
    37    19    21   ar
    38    21    22   ar
    39     8     1    1
    40    22    16   ar
    41    39    35   ar
    42    15     9   ar
    43    39    40    1
@<TRIPOS>MOLECULE
*****
 40 43 0 0 0
SMALL
GASTEIGER

@<TRIPOS>ATOM
      1 N          63.5171   85.1010   12.5352 N.am    1  UNL1       -0.2770
      2 C          64.1397   85.2824   13.8877 C.2     1  UNL1        0.2253
      3 O          64.7236   84.1037   14.6089 O.2     1  UNL1       -0.2749
      4 C          64.1785   86.6424   14.5192 C.3     1  UNL1        0.0766
      5 C          64.8577   85.8392   15.5886 C.3     1  UNL1        0.0095
      6 C          63.5947   87.8211   13.7982 C.3     1  UNL1        0.0154
      7 C          62.9721   87.6397   12.4456 C.3     1  UNL1        0.0452
      8 C          62.9333   86.2796   11.8141 C.3     1  UNL1        0.1018
      9 C          62.3883   88.8183   11.7245 C.ar    1  UNL1       -0.0197
     10 C          63.2210   89.5814   10.7375 C.ar    1  UNL1       -0.0042
     11 C          62.6371   90.7601   10.0163 C.ar    1  UNL1        0.0005
     12 C          61.2206   91.1756   10.2823 C.ar    1  UNL1        0.0114
     13 C          60.3879   90.4124   11.2694 C.ar    1  UNL1        0.0574
     14 CL         58.9713   90.8280   11.5354 Cl      1  UNL1       -0.0823
     15 C          60.9717   89.2338   11.9905 C.ar    1  UNL1        0.0072
     16 C          62.3107   86.0982   10.4615 C.ar    1  UNL1       -0.0039
     17 C          63.1397   85.5999    9.3150 C.ar    1  UNL1       -0.0018
     18 C          62.5172   85.4185    7.9625 C.ar    1  UNL1        0.0111
     19 C          61.0656   85.7355    7.7563 C.ar    1  UNL1        0.0577
     20 CL         60.4430   85.5541    6.4037 Cl      1  UNL1       -0.0822
     21 C          60.2366   86.2339    8.9028 C.ar    1  UNL1        0.0111
     22 C          60.8592   86.4153   10.2554 C.ar    1  UNL1       -0.0018
     23 C          63.4784   83.7410   11.9037 C.3     1  UNL1        0.0991
     24 C          64.5230   82.4850    9.8835 C.3     1  UNL1        0.0018
     25 C          64.6845   83.2131   11.1850 C.3     1  UNL1        0.0216
     26 C          62.2335   82.9088   11.9909 C.3     1  UNL1        0.1703
     27 S          62.2041   81.6929   12.8688 S.O2    1  UNL1       -0.0115
     28 O          62.4892   80.8263   11.6782 O.2     1  UNL1       -0.1730
     29 O          61.9190   82.5595   14.0595 O.2     1  UNL1       -0.1730
     30 C          62.1747   80.4770   13.7468 C.3     1  UNL1        0.1108
     31 C          63.6578   80.3230   13.5831 C.3     1  UNL1        0.0236
     32 C          60.6917   80.6310   13.9104 C.3     1  UNL1        0.0236
     33 C          62.1454   79.2611   14.6247 C.3     1  UNL1        0.0236
     34 C          64.4532   87.7235   15.5222 C.3     1  UNL1        0.0757
     35 C          64.2494   89.1620   15.1491 C.ar    1  UNL1        0.1578
     36 N          63.1622   90.0600   15.6606 N.ar    1  UNL1       -0.1129
     37 N          63.3379   91.4081   15.0266 N.ar    1  UNL1       -0.0232
     38 N          64.5337   91.3432   14.1232 N.ar    1  UNL1       -0.0466
     39 N          65.0969   89.9551   14.1989 N.ar    1  UNL1       -0.2422
     40 H          65.8847   89.6229   13.7107 H       1  UNL1        0.1920
@<TRIPOS>BOND
     1    24    25    1
     2    23    25    1
     3    23    26    1
     4    26    27    1
     5    27    28    2
     6    27    29    2
     7    27    30    1
     8    30    31    1
     9    30    32    1
    10    30    33    1
    11    23     1    1
    12     1     2   am
    13     2     3    2
    14     2     4    1
    15     4     5    1
    16     4    34    1
    17    34    35    1
    18    35    36   ar
    19    36    37   ar
    20    37    38   ar
    21    38    39   ar
    22     4     6    1
    23     6     7    1
    24     7     9    1
    25     9    10   ar
    26    10    11   ar
    27    11    12   ar
    28    12    13   ar
    29    13    14    1
    30    13    15   ar
    31     7     8    1
    32     8    16    1
    33    16    17   ar
    34    17    18   ar
    35    18    19   ar
    36    19    20    1
    37    19    21   ar
    38    21    22   ar
    39     8     1    1
    40    22    16   ar
    41    39    35   ar
    42    15     9   ar
    43    39    40    1
@<TRIPOS>MOLECULE
*****
 40 43 0 0 0
SMALL
GASTEIGER

@<TRIPOS>ATOM
      1 N          59.5410   94.0467   -3.3935 N.am    1  UNL1       -0.2770
      2 C          59.7286   94.3576   -4.8489 C.2     1  UNL1        0.2253
      3 O          58.6113   94.1103   -5.8187 O.2     1  UNL1       -0.2749
      4 C          61.0335   94.9157   -5.3344 C.3     1  UNL1        0.0766
      5 C          60.2783   94.8549   -6.6290 C.3     1  UNL1        0.0095
      6 C          62.1507   95.1629   -4.3647 C.3     1  UNL1        0.0154
      7 C          61.9631   94.8521   -2.9093 C.3     1  UNL1        0.0452
      8 C          60.6583   94.2940   -2.4237 C.3     1  UNL1        0.1018
      9 C          63.0804   95.0993   -1.9394 C.ar    1  UNL1       -0.0197
     10 C          63.6089   96.4893   -1.7426 C.ar    1  UNL1       -0.0042
     11 C          64.7262   96.7365   -0.7727 C.ar    1  UNL1        0.0005
     12 C          65.3150   95.5938    0.0003 C.ar    1  UNL1        0.0114
     13 C          64.7865   94.2038   -0.1966 C.ar    1  UNL1        0.0574
     14 CL         65.3753   93.0610    0.5764 Cl      1  UNL1       -0.0823
     15 C          63.6692   93.9566   -1.1665 C.ar    1  UNL1        0.0072
     16 C          60.4707   93.9831   -0.9683 C.ar    1  UNL1       -0.0039
     17 C          60.5623   92.5656   -0.4862 C.ar    1  UNL1       -0.0018
     18 C          60.3748   92.2547    0.9691 C.ar    1  UNL1        0.0111
     19 C          60.0956   93.3614    1.9425 C.ar    1  UNL1        0.0577
     20 CL         59.9080   93.0505    3.3979 Cl      1  UNL1       -0.0822
     21 C          60.0039   94.7789    1.4605 C.ar    1  UNL1        0.0111
     22 C          60.1915   95.0897    0.0051 C.ar    1  UNL1       -0.0018
     23 C          58.2361   93.4886   -2.9079 C.3     1  UNL1        0.0991
     24 C          56.8432   91.7821   -4.2854 C.3     1  UNL1        0.0018
     25 C          57.8629   92.0706   -3.2238 C.3     1  UNL1        0.0216
     26 C          57.3044   94.3486   -2.1064 C.3     1  UNL1        0.1703
     27 S          56.0750   94.9216   -2.7468 S.O2    1  UNL1       -0.0115
     28 O          56.9245   95.9003   -3.5020 O.2     1  UNL1       -0.1730
     29 O          55.2254   93.9429   -1.9916 O.2     1  UNL1       -0.1730
     30 C          54.8455   95.4947   -3.3872 C.3     1  UNL1        0.1108
     31 C          54.1346   95.4444   -2.0673 C.3     1  UNL1        0.0236
     32 C          55.5564   95.5449   -4.7071 C.3     1  UNL1        0.0236
     33 C          53.6161   96.0677   -4.0276 C.3     1  UNL1        0.0236
     34 C          62.0760   95.4527   -6.2697 C.3     1  UNL1        0.0757
     35 C          63.2623   94.6100   -6.6340 C.ar    1  UNL1        0.1578
     36 N          64.6911   95.0654   -6.6652 N.ar    1  UNL1       -0.1129
     37 N          65.5398   93.9008   -7.0816 N.ar    1  UNL1       -0.0232
     38 N          64.6355   92.7255   -7.3077 N.ar    1  UNL1       -0.0466
     39 N          63.2279   93.1638   -7.0311 N.ar    1  UNL1       -0.2422
     40 H          62.4229   92.6012   -7.0984 H       1  UNL1        0.1920
@<TRIPOS>BOND
     1    24    25    1
     2    23    25    1
     3    23    26    1
     4    26    27    1
     5    27    28    2
     6    27    29    2
     7    27    30    1
     8    30    31    1
     9    30    32    1
    10    30    33    1
    11    23     1    1
    12     1     2   am
    13     2     3    2
    14     2     4    1
    15     4     5    1
    16     4    34    1
    17    34    35    1
    18    35    36   ar
    19    36    37   ar
    20    37    38   ar
    21    38    39   ar
    22     4     6    1
    23     6     7    1
    24     7     9    1
    25     9    10   ar
    26    10    11   ar
    27    11    12   ar
    28    12    13   ar
    29    13    14    1
    30    13    15   ar
    31     7     8    1
    32     8    16    1
    33    16    17   ar
    34    17    18   ar
    35    18    19   ar
    36    19    20    1
    37    19    21   ar
    38    21    22   ar
    39     8     1    1
    40    22    16   ar
    41    39    35   ar
    42    15     9   ar
    43    39    40    1
@<TRIPOS>MOLECULE
*****
 40 43 0 0 0
SMALL
GASTEIGER

@<TRIPOS>ATOM
      1 N          62.9692   88.2601   11.4362 N.am    1  UNL1       -0.2770
      2 C          63.4846   88.7719   12.7486 C.2     1  UNL1        0.2253
      3 O          63.5654   90.2488   12.9981 O.2     1  UNL1       -0.2749
      4 C          63.9194   87.8068   13.8114 C.3     1  UNL1        0.0766
      5 C          64.1829   89.1051   14.5149 C.3     1  UNL1        0.0095
      6 C          63.8387   86.3300   13.5619 C.3     1  UNL1        0.0154
      7 C          63.3232   85.8182   12.2495 C.3     1  UNL1        0.0452
      8 C          62.8884   86.7832   11.1867 C.3     1  UNL1        0.1018
      9 C          63.2425   84.3412   11.9999 C.ar    1  UNL1       -0.0197
     10 C          63.9779   83.7350   10.8417 C.ar    1  UNL1       -0.0042
     11 C          63.8971   82.2581   10.5921 C.ar    1  UNL1        0.0005
     12 C          63.0810   81.3874   11.5008 C.ar    1  UNL1        0.0114
     13 C          62.3456   81.9937   12.6592 C.ar    1  UNL1        0.0574
     14 CL         61.5294   81.1230   13.5679 Cl      1  UNL1       -0.0823
     15 C          62.4263   83.4706   12.9087 C.ar    1  UNL1        0.0072
     16 C          62.3729   86.2714    9.8743 C.ar    1  UNL1       -0.0039
     17 C          63.3352   85.8559    8.8012 C.ar    1  UNL1       -0.0018
     18 C          62.8197   85.3441    7.4888 C.ar    1  UNL1        0.0111
     19 C          61.3420   85.2477    7.2495 C.ar    1  UNL1        0.0577
     20 CL         60.8266   84.7358    5.9372 Cl      1  UNL1       -0.0822
     21 C          60.3798   85.6631    8.3226 C.ar    1  UNL1        0.0111
     22 C          60.8953   86.1750    9.6350 C.ar    1  UNL1       -0.0018
     23 C          62.5344   89.2252   10.3734 C.3     1  UNL1        0.0991
     24 C          63.6163   91.5627   10.0335 C.3     1  UNL1        0.0018
     25 C          63.5461   90.1025    9.6976 C.3     1  UNL1        0.0216
     26 C          61.0879   89.3130    9.9863 C.3     1  UNL1        0.1703
     27 S          60.0277   89.3365   11.0472 S.O2    1  UNL1       -0.0115
     28 O          59.4110   88.1025   10.4582 O.2     1  UNL1       -0.1730
     29 O          60.6445   90.5705   11.6362 O.2     1  UNL1       -0.1730
     30 C          58.9675   89.3600   12.1080 C.3     1  UNL1        0.1108
     31 C          58.6679   90.7920   11.7768 C.3     1  UNL1        0.0236
     32 C          59.2672   87.9280   12.4392 C.3     1  UNL1        0.0236
     33 C          57.9073   89.3835   13.1689 C.3     1  UNL1        0.0236
     34 C          64.4457   87.2927   15.1186 C.3     1  UNL1        0.0757
     35 C          63.4926   86.8962   16.2069 C.ar    1  UNL1        0.1578
     36 N          62.7494   85.5964   16.2976 N.ar    1  UNL1       -0.1129
     37 N          61.9128   85.6267   17.5424 N.ar    1  UNL1       -0.0232
     38 N          62.1391   86.9452   18.2209 N.ar    1  UNL1       -0.0466
     39 N          63.1153   87.7298   17.3956 N.ar    1  UNL1       -0.2422
     40 H          63.4499   88.6332   17.5984 H       1  UNL1        0.1920
@<TRIPOS>BOND
     1    24    25    1
     2    23    25    1
     3    23    26    1
     4    26    27    1
     5    27    28    2
     6    27    29    2
     7    27    30    1
     8    30    31    1
     9    30    32    1
    10    30    33    1
    11    23     1    1
    12     1     2   am
    13     2     3    2
    14     2     4    1
    15     4     5    1
    16     4    34    1
    17    34    35    1
    18    35    36   ar
    19    36    37   ar
    20    37    38   ar
    21    38    39   ar
    22     4     6    1
    23     6     7    1
    24     7     9    1
    25     9    10   ar
    26    10    11   ar
    27    11    12   ar
    28    12    13   ar
    29    13    14    1
    30    13    15   ar
    31     7     8    1
    32     8    16    1
    33    16    17   ar
    34    17    18   ar
    35    18    19   ar
    36    19    20    1
    37    19    21   ar
    38    21    22   ar
    39     8     1    1
    40    22    16   ar
    41    39    35   ar
    42    15     9   ar
    43    39    40    1
