@<TRIPOS>MOLECULE
*****
 31 33 0 0 0
SMALL
GASTEIGER

@<TRIPOS>ATOM
      1 C          64.0875   87.5064   15.3382 C.ar    1  UNL1        0.0764
      2 C          64.6393   88.6607   14.5552 C.ar    1  UNL1        0.0522
      3 C          64.1883   90.0583   14.8610 C.ar    1  UNL1        0.1515
      4 N          63.1856   90.3015   15.9497 N.ar    1  UNL1       -0.1329
      5 N          62.6338   89.1472   16.7327 N.ar    1  UNL1       -0.1409
      6 C          63.0848   87.7496   16.4269 C.ar    1  UNL1        0.1691
      7 C          62.5330   86.5953   17.2099 C.2     1  UNL1        0.2635
      8 N          62.6786   86.5635   18.7025 N.am    1  UNL1       -0.3240
      9 O          61.8356   85.4727   16.5003 O.2     1  UNL1       -0.2686
     10 H          63.1363   87.3003   19.1682 H       1  UNL1        0.1453
     11 H          62.3165   85.8059   19.2164 H       1  UNL1        0.1453
     12 N          64.5385   86.1089   15.0324 N.pl3   1  UNL1       -0.2965
     13 H          65.1800   85.6574   15.6273 H       1  UNL1        0.1537
     14 C          61.4600   86.0296   10.8471 C.3     1  UNL1        0.0521
     15 C          62.4728   85.3596   11.7276 C.ar    1  UNL1        0.0608
     16 C          62.9591   83.9799   11.3961 C.ar    1  UNL1        0.0148
     17 C          63.9719   83.3099   12.2766 C.ar    1  UNL1        0.0041
     18 C          64.4983   84.0195   13.4887 C.ar    1  UNL1        0.0344
     19 C          64.0120   85.3992   13.8203 C.ar    1  UNL1        0.1318
     20 N          62.9993   86.0692   12.9397 N.ar    1  UNL1       -0.2349
     21 N          64.7400   91.2127   14.0780 N.pl3   1  UNL1       -0.3170
     22 H          64.2348   91.5766   13.3154 H       1  UNL1        0.1482
     23 C          66.0617   91.8125   14.4569 C.3     1  UNL1        0.0845
     24 C          67.2486   91.6421   13.5557 C.3     1  UNL1        0.0209
     25 C          68.5703   92.2419   13.9346 C.3     1  UNL1        0.0018
     26 C          68.7049   93.0122   15.2147 C.3     1  UNL1        0.0015
     27 C          67.5179   93.1826   16.1159 C.3     1  UNL1        0.0172
     28 C          66.1963   92.5828   15.7369 C.3     1  UNL1        0.0689
     29 N          65.0093   92.7532   16.6381 N.3     1  UNL1       -0.3209
     30 H          64.2013   92.2846   16.2283 H       1  UNL1        0.1189
     31 H          64.8063   93.7466   16.7488 H       1  UNL1        0.1189
@<TRIPOS>BOND
     1    14    15    1
     2    15    16   ar
     3    16    17   ar
     4    17    18   ar
     5    18    19   ar
     6    19    12    1
     7    12     1    1
     8     1     2   ar
     9     2     3   ar
    10     3    21    1
    11    23    21    1
    12    23    24    1
    13    24    25    1
    14    25    26    1
    15    26    27    1
    16    27    28    1
    17    28    29    1
    18     3     4   ar
    19     4     5   ar
    20     5     6   ar
    21     6     7    1
    22     7     8   am
    23     7     9    2
    24    19    20   ar
    25    20    15   ar
    26     6     1   ar
    27    28    23    1
    28    12    13    1
    29    21    22    1
    30    29    30    1
    31    29    31    1
    32     8    10    1
    33     8    11    1
@<TRIPOS>MOLECULE
*****
 31 33 0 0 0
SMALL
GASTEIGER

@<TRIPOS>ATOM
      1 C          63.6368   90.9100   13.3557 C.ar    1  UNL1        0.0764
      2 C          62.5647   90.4866   12.3958 C.ar    1  UNL1        0.0522
      3 C          62.6738   90.8461   10.9435 C.ar    1  UNL1        0.1515
      4 N          63.8548   91.6288   10.4513 N.ar    1  UNL1       -0.1329
      5 N          64.9269   92.0521   11.4112 N.ar    1  UNL1       -0.1409
      6 C          64.8179   91.6927   12.8634 C.ar    1  UNL1        0.1691
      7 C          65.8900   92.1161   13.8233 C.2     1  UNL1        0.2635
      8 N          67.3345   91.9695   13.4466 N.am    1  UNL1       -0.3240
      9 O          65.5175   92.6860   15.1599 O.2     1  UNL1       -0.2686
     10 H          67.5789   91.5955   12.5694 H       1  UNL1        0.1453
     11 H          68.0381   92.2474   14.0766 H       1  UNL1        0.1453
     12 N          63.5278   90.5506   14.8079 N.pl3   1  UNL1       -0.2965
     13 H          63.3805   91.2551   15.4796 H       1  UNL1        0.1537
     14 C          62.5646   86.7980   18.2707 C.3     1  UNL1        0.0521
     15 C          63.1618   87.2415   16.9681 C.ar    1  UNL1        0.0608
     16 C          63.8744   86.2523   16.0943 C.ar    1  UNL1        0.0148
     17 C          64.4716   86.6959   14.7918 C.ar    1  UNL1        0.0041
     18 C          64.3561   88.1286   14.3629 C.ar    1  UNL1        0.0344
     19 C          63.6434   89.1178   15.2367 C.ar    1  UNL1        0.1318
     20 N          63.0462   88.6743   16.5393 N.ar    1  UNL1       -0.2349
     21 N          61.6017   90.4227    9.9836 N.pl3   1  UNL1       -0.3170
     22 H          61.0425   91.1007    9.5399 H       1  UNL1        0.1482
     23 C          61.3815   88.9663    9.6998 C.3     1  UNL1        0.0845
     24 C          62.1001   87.9276   10.5089 C.3     1  UNL1        0.0209
     25 C          61.8799   86.4712   10.2251 C.3     1  UNL1        0.0018
     26 C          60.9412   86.0536    9.1322 C.3     1  UNL1        0.0015
     27 C          60.2227   87.0924    8.3231 C.3     1  UNL1        0.0172
     28 C          60.4428   88.5488    8.6069 C.3     1  UNL1        0.0689
     29 N          59.7243   89.5876    7.7978 N.3     1  UNL1       -0.3209
     30 H          59.9904   90.5167    8.1240 H       1  UNL1        0.1189
     31 H          58.7173   89.4652    7.9046 H       1  UNL1        0.1189
@<TRIPOS>BOND
     1    14    15    1
     2    15    16   ar
     3    16    17   ar
     4    17    18   ar
     5    18    19   ar
     6    19    12    1
     7    12     1    1
     8     1     2   ar
     9     2     3   ar
    10     3    21    1
    11    23    21    1
    12    23    24    1
    13    24    25    1
    14    25    26    1
    15    26    27    1
    16    27    28    1
    17    28    29    1
    18     3     4   ar
    19     4     5   ar
    20     5     6   ar
    21     6     7    1
    22     7     8   am
    23     7     9    2
    24    19    20   ar
    25    20    15   ar
    26     6     1   ar
    27    28    23    1
    28    12    13    1
    29    21    22    1
    30    29    30    1
    31    29    31    1
    32     8    10    1
    33     8    11    1
@<TRIPOS>MOLECULE
*****
 31 33 0 0 0
SMALL
GASTEIGER

@<TRIPOS>ATOM
      1 C          63.4400   90.4227   13.1543 C.ar    1  UNL1        0.0764
      2 C          63.8562   91.6463   12.3931 C.ar    1  UNL1        0.0522
      3 C          65.1637   92.3134   12.7023 C.ar    1  UNL1        0.1515
      4 N          66.0549   91.7568   13.7729 N.ar    1  UNL1       -0.1329
      5 N          65.6386   90.5332   14.5341 N.ar    1  UNL1       -0.1409
      6 C          64.3312   89.8662   14.2249 C.ar    1  UNL1        0.1691
      7 C          63.9150   88.6426   14.9862 C.2     1  UNL1        0.2635
      8 N          64.2449   87.2797   14.4537 N.am    1  UNL1       -0.3240
      9 O          63.1688   88.7820   16.2800 O.2     1  UNL1       -0.2686
     10 H          64.7346   87.1882   13.6046 H       1  UNL1        0.1453
     11 H          63.9717   86.4766   14.9534 H       1  UNL1        0.1453
     12 N          62.1326   89.7557   12.8451 N.pl3   1  UNL1       -0.2965
     13 H          61.3335   89.9668   13.3801 H       1  UNL1        0.1537
     14 C          62.6138   84.8921   11.0803 C.3     1  UNL1        0.0521
     15 C          62.2831   86.3351   10.8384 C.ar    1  UNL1        0.0608
     16 C          61.8624   86.7892    9.4721 C.ar    1  UNL1        0.0148
     17 C          61.5318   88.2322    9.2301 C.ar    1  UNL1        0.0041
     18 C          61.6218   89.2210   10.3545 C.ar    1  UNL1        0.0344
     19 C          62.0425   88.7668   11.7207 C.ar    1  UNL1        0.1318
     20 N          62.3731   87.3239   11.9627 N.ar    1  UNL1       -0.2349
     21 N          65.5799   93.5370   11.9411 N.pl3   1  UNL1       -0.3170
     22 H          65.2246   94.4193   12.1950 H       1  UNL1        0.1482
     23 C          66.5376   93.4162   10.7928 C.3     1  UNL1        0.0845
     24 C          67.4621   92.2381   10.7080 C.3     1  UNL1        0.0209
     25 C          68.4197   92.1174    9.5597 C.3     1  UNL1        0.0018
     26 C          68.4527   93.1747    8.4963 C.3     1  UNL1        0.0015
     27 C          67.5281   94.3529    8.5811 C.3     1  UNL1        0.0172
     28 C          66.5706   94.4736    9.7294 C.3     1  UNL1        0.0689
     29 N          65.6460   95.6518    9.8143 N.3     1  UNL1       -0.3209
     30 H          65.0697   95.5721   10.6521 H       1  UNL1        0.1189
     31 H          65.0459   95.6732    8.9897 H       1  UNL1        0.1189
@<TRIPOS>BOND
     1    14    15    1
     2    15    16   ar
     3    16    17   ar
     4    17    18   ar
     5    18    19   ar
     6    19    12    1
     7    12     1    1
     8     1     2   ar
     9     2     3   ar
    10     3    21    1
    11    23    21    1
    12    23    24    1
    13    24    25    1
    14    25    26    1
    15    26    27    1
    16    27    28    1
    17    28    29    1
    18     3     4   ar
    19     4     5   ar
    20     5     6   ar
    21     6     7    1
    22     7     8   am
    23     7     9    2
    24    19    20   ar
    25    20    15   ar
    26     6     1   ar
    27    28    23    1
    28    12    13    1
    29    21    22    1
    30    29    30    1
    31    29    31    1
    32     8    10    1
    33     8    11    1
@<TRIPOS>MOLECULE
*****
 31 33 0 0 0
SMALL
GASTEIGER

@<TRIPOS>ATOM
      1 C          66.0096   91.7088   13.2941 C.ar    1  UNL1        0.0764
      2 C          64.7109   91.0318   12.9698 C.ar    1  UNL1        0.0522
      3 C          63.6620   90.8740   14.0305 C.ar    1  UNL1        0.1515
      4 N          63.9118   91.3932   15.4154 N.ar    1  UNL1       -0.1329
      5 N          65.2104   92.0702   15.7396 N.ar    1  UNL1       -0.1409
      6 C          66.2593   92.2280   14.6790 C.ar    1  UNL1        0.1691
      7 C          67.5580   92.9050   15.0033 C.2     1  UNL1        0.2635
      8 N          67.6006   93.9885   16.0397 N.am    1  UNL1       -0.3240
      9 O          68.8140   92.4984   14.2912 O.2     1  UNL1       -0.2686
     10 H          66.7763   94.2553   16.5071 H       1  UNL1        0.1453
     11 H          68.4530   94.4328   16.2526 H       1  UNL1        0.1453
     12 N          67.0584   91.8665   12.2335 N.pl3   1  UNL1       -0.2965
     13 H          67.7729   91.1952   12.1440 H       1  UNL1        0.1537
     14 C          65.8978   96.8540   11.3515 C.3     1  UNL1        0.0521
     15 C          66.4384   95.5410   10.8681 C.ar    1  UNL1        0.0608
     16 C          66.9392   95.4086    9.4604 C.ar    1  UNL1        0.0148
     17 C          67.4798   94.0955    8.9771 C.ar    1  UNL1        0.0041
     18 C          67.5195   92.9148    9.9014 C.ar    1  UNL1        0.0344
     19 C          67.0187   93.0472   11.3091 C.ar    1  UNL1        0.1318
     20 N          66.4781   94.3603   11.7924 N.ar    1  UNL1       -0.2349
     21 N          62.3633   90.1970   13.7062 N.pl3   1  UNL1       -0.3170
     22 H          61.6767   90.0894   14.4035 H       1  UNL1        0.1482
     23 C          62.1108   89.6841   12.3194 C.3     1  UNL1        0.0845
     24 C          61.3459   90.5215   11.3377 C.3     1  UNL1        0.0209
     25 C          61.0934   90.0085    9.9509 C.3     1  UNL1        0.0018
     26 C          61.6057   88.6581    9.5458 C.3     1  UNL1        0.0015
     27 C          62.3705   87.8207   10.5276 C.3     1  UNL1        0.0172
     28 C          62.6231   88.3337   11.9143 C.3     1  UNL1        0.0689
     29 N          63.3879   87.4963   12.8961 N.3     1  UNL1       -0.3209
     30 H          63.4651   87.9962   13.7819 H       1  UNL1        0.1189
     31 H          64.3209   87.3090   12.5290 H       1  UNL1        0.1189
@<TRIPOS>BOND
     1    14    15    1
     2    15    16   ar
     3    16    17   ar
     4    17    18   ar
     5    18    19   ar
     6    19    12    1
     7    12     1    1
     8     1     2   ar
     9     2     3   ar
    10     3    21    1
    11    23    21    1
    12    23    24    1
    13    24    25    1
    14    25    26    1
    15    26    27    1
    16    27    28    1
    17    28    29    1
    18     3     4   ar
    19     4     5   ar
    20     5     6   ar
    21     6     7    1
    22     7     8   am
    23     7     9    2
    24    19    20   ar
    25    20    15   ar
    26     6     1   ar
    27    28    23    1
    28    12    13    1
    29    21    22    1
    30    29    30    1
    31    29    31    1
    32     8    10    1
    33     8    11    1
@<TRIPOS>MOLECULE
*****
 31 33 0 0 0
SMALL
GASTEIGER

@<TRIPOS>ATOM
      1 C          61.7954   86.8170    9.8818 C.ar    1  UNL1        0.0764
      2 C          62.2386   87.6699   11.0334 C.ar    1  UNL1        0.0522
      3 C          61.5069   88.9402   11.3510 C.ar    1  UNL1        0.1515
      4 N          60.3320   89.3576   10.5172 N.ar    1  UNL1       -0.1329
      5 N          59.8887   88.5047    9.3656 N.ar    1  UNL1       -0.1409
      6 C          60.6204   87.2344    9.0479 C.ar    1  UNL1        0.1691
      7 C          60.1772   86.3815    7.8964 C.2     1  UNL1        0.2635
      8 N          58.7354   86.3702    7.4827 N.am    1  UNL1       -0.3240
      9 O          61.1758   85.5398    7.1585 O.2     1  UNL1       -0.2686
     10 H          58.0800   86.9226    7.9670 H       1  UNL1        0.1453
     11 H          58.4445   85.8104    6.7269 H       1  UNL1        0.1453
     12 N          62.5271   85.5467    9.5641 N.pl3   1  UNL1       -0.2965
     13 H          62.7164   85.3087    8.6278 H       1  UNL1        0.1537
     14 C          62.3356   84.1145   14.5553 C.3     1  UNL1        0.0521
     15 C          62.8745   83.9229   13.1686 C.ar    1  UNL1        0.0608
     16 C          63.8566   82.8237   12.8909 C.ar    1  UNL1        0.0148
     17 C          64.3955   82.6321   11.5042 C.ar    1  UNL1        0.0041
     18 C          63.9524   83.5397   10.3953 C.ar    1  UNL1        0.0344
     19 C          62.9703   84.6390   10.6731 C.ar    1  UNL1        0.1318
     20 N          62.4314   84.8305   12.0597 N.ar    1  UNL1       -0.2349
     21 N          61.9501   89.7932   12.5026 N.pl3   1  UNL1       -0.3170
     22 H          61.4481   89.7765   13.3493 H       1  UNL1        0.1482
     23 C          63.1582   90.6715   12.3640 C.3     1  UNL1        0.0845
     24 C          63.5610   91.1853   11.0135 C.3     1  UNL1        0.0209
     25 C          64.7691   92.0636   10.8749 C.3     1  UNL1        0.0018
     26 C          65.5743   92.4281   12.0868 C.3     1  UNL1        0.0015
     27 C          65.1715   91.9142   13.4373 C.3     1  UNL1        0.0172
     28 C          63.9635   91.0359   13.5759 C.3     1  UNL1        0.0689
     29 N          63.5607   90.5221   14.9264 N.3     1  UNL1       -0.3209
     30 H          62.7242   89.9456   14.8352 H       1  UNL1        0.1189
     31 H          63.3655   91.3090   15.5452 H       1  UNL1        0.1189
@<TRIPOS>BOND
     1    14    15    1
     2    15    16   ar
     3    16    17   ar
     4    17    18   ar
     5    18    19   ar
     6    19    12    1
     7    12     1    1
     8     1     2   ar
     9     2     3   ar
    10     3    21    1
    11    23    21    1
    12    23    24    1
    13    24    25    1
    14    25    26    1
    15    26    27    1
    16    27    28    1
    17    28    29    1
    18     3     4   ar
    19     4     5   ar
    20     5     6   ar
    21     6     7    1
    22     7     8   am
    23     7     9    2
    24    19    20   ar
    25    20    15   ar
    26     6     1   ar
    27    28    23    1
    28    12    13    1
    29    21    22    1
    30    29    30    1
    31    29    31    1
    32     8    10    1
    33     8    11    1
@<TRIPOS>MOLECULE
*****
 31 33 0 0 0
SMALL
GASTEIGER

@<TRIPOS>ATOM
      1 C          64.3354   91.5615   12.6775 C.ar    1  UNL1        0.0764
      2 C          63.7100   91.3414   11.3320 C.ar    1  UNL1        0.0522
      3 C          62.5494   90.4018   11.1891 C.ar    1  UNL1        0.1515
      4 N          62.0144   89.6824   12.3916 N.ar    1  UNL1       -0.1329
      5 N          62.6399   89.9025   13.7371 N.ar    1  UNL1       -0.1409
      6 C          63.8003   90.8420   13.8801 C.ar    1  UNL1        0.1691
      7 C          64.4258   91.0622   15.2256 C.2     1  UNL1        0.2635
      8 N          63.5998   90.9180   16.4693 N.am    1  UNL1       -0.3240
      9 O          65.8774   91.4265   15.3273 O.2     1  UNL1       -0.2686
     10 H          62.6471   90.6789   16.4025 H       1  UNL1        0.1453
     11 H          64.0103   91.0625   17.3523 H       1  UNL1        0.1453
     12 N          65.4959   92.5011   12.8205 N.pl3   1  UNL1       -0.2965
     13 H          65.8529   92.7101   13.7138 H       1  UNL1        0.1537
     14 C          68.7637   92.2195    8.7902 C.3     1  UNL1        0.0521
     15 C          67.7465   92.9813    9.5871 C.ar    1  UNL1        0.0608
     16 C          67.3461   94.3641    9.1659 C.ar    1  UNL1        0.0148
     17 C          66.3289   95.1259    9.9628 C.ar    1  UNL1        0.0041
     18 C          65.7122   94.5049   11.1809 C.ar    1  UNL1        0.0344
     19 C          66.1126   93.1221   11.6022 C.ar    1  UNL1        0.1318
     20 N          67.1298   92.3603   10.8053 N.ar    1  UNL1       -0.2349
     21 N          61.9240   90.1817    9.8436 N.pl3   1  UNL1       -0.3170
     22 H          61.8211   90.9359    9.2192 H       1  UNL1        0.1482
     23 C          61.4553   88.8124    9.4494 C.3     1  UNL1        0.0845
     24 C          62.1418   87.5974    9.9993 C.3     1  UNL1        0.0209
     25 C          61.6731   86.2281    9.6051 C.3     1  UNL1        0.0018
     26 C          60.5178   86.0738    8.6609 C.3     1  UNL1        0.0015
     27 C          59.8313   87.2889    8.1109 C.3     1  UNL1        0.0172
     28 C          60.3000   88.6581    8.5052 C.3     1  UNL1        0.0689
     29 N          59.6134   89.8731    7.9552 N.3     1  UNL1       -0.3209
     30 H          60.0589   90.7124    8.3260 H       1  UNL1        0.1189
     31 H          58.6307   89.8610    8.2280 H       1  UNL1        0.1189
@<TRIPOS>BOND
     1    14    15    1
     2    15    16   ar
     3    16    17   ar
     4    17    18   ar
     5    18    19   ar
     6    19    12    1
     7    12     1    1
     8     1     2   ar
     9     2     3   ar
    10     3    21    1
    11    23    21    1
    12    23    24    1
    13    24    25    1
    14    25    26    1
    15    26    27    1
    16    27    28    1
    17    28    29    1
    18     3     4   ar
    19     4     5   ar
    20     5     6   ar
    21     6     7    1
    22     7     8   am
    23     7     9    2
    24    19    20   ar
    25    20    15   ar
    26     6     1   ar
    27    28    23    1
    28    12    13    1
    29    21    22    1
    30    29    30    1
    31    29    31    1
    32     8    10    1
    33     8    11    1
@<TRIPOS>MOLECULE
*****
 31 33 0 0 0
SMALL
GASTEIGER

@<TRIPOS>ATOM
      1 C          62.3051   89.4232   11.9881 C.ar    1  UNL1        0.0764
      2 C          63.1776   88.4899   12.7741 C.ar    1  UNL1        0.0522
      3 C          62.9747   87.0073   12.6700 C.ar    1  UNL1        0.1515
      4 N          61.8995   86.4581   11.7801 N.ar    1  UNL1       -0.1329
      5 N          61.0270   87.3914   10.9941 N.ar    1  UNL1       -0.1409
      6 C          61.2298   88.8739   11.0981 C.ar    1  UNL1        0.1691
      7 C          60.3573   89.8072   10.3121 C.2     1  UNL1        0.2635
      8 N          60.2800   89.6832    8.8193 N.am    1  UNL1       -0.3240
      9 O          59.5622   90.8646   11.0191 O.2     1  UNL1       -0.2686
     10 H          60.8019   88.9892    8.3553 H       1  UNL1        0.1453
     11 H          59.7074   90.2958    8.3035 H       1  UNL1        0.1453
     12 N          62.5079   90.9058   12.0921 N.pl3   1  UNL1       -0.2965
     13 H          61.7297   91.5071   12.1371 H       1  UNL1        0.1537
     14 C          66.7401   92.2800   14.7755 C.3     1  UNL1        0.0521
     15 C          66.0125   92.1593   13.4693 C.ar    1  UNL1        0.0608
     16 C          66.6734   92.6050   12.1987 C.ar    1  UNL1        0.0148
     17 C          65.9458   92.4843   10.8925 C.ar    1  UNL1        0.0041
     18 C          64.5574   91.9179   10.8570 C.ar    1  UNL1        0.0344
     19 C          63.8965   91.4722   12.1276 C.ar    1  UNL1        0.1318
     20 N          64.6240   91.5929   13.4338 N.ar    1  UNL1       -0.2349
     21 N          63.8472   86.0740   13.4560 N.pl3   1  UNL1       -0.3170
     22 H          64.6103   86.4273   13.9679 H       1  UNL1        0.1482
     23 C          63.5569   84.6023   13.4621 C.3     1  UNL1        0.0845
     24 C          64.1928   83.7082   12.4393 C.3     1  UNL1        0.0209
     25 C          63.9025   82.2365   12.4453 C.3     1  UNL1        0.0018
     26 C          62.9762   81.6590   13.4742 C.3     1  UNL1        0.0015
     27 C          62.3403   82.5532   14.4970 C.3     1  UNL1        0.0172
     28 C          62.6306   84.0248   14.4909 C.3     1  UNL1        0.0689
     29 N          61.9947   84.9190   15.5138 N.3     1  UNL1       -0.3209
     30 H          62.3009   85.8801   15.3625 H       1  UNL1        0.1189
     31 H          62.2711   84.6172   16.4481 H       1  UNL1        0.1189
@<TRIPOS>BOND
     1    14    15    1
     2    15    16   ar
     3    16    17   ar
     4    17    18   ar
     5    18    19   ar
     6    19    12    1
     7    12     1    1
     8     1     2   ar
     9     2     3   ar
    10     3    21    1
    11    23    21    1
    12    23    24    1
    13    24    25    1
    14    25    26    1
    15    26    27    1
    16    27    28    1
    17    28    29    1
    18     3     4   ar
    19     4     5   ar
    20     5     6   ar
    21     6     7    1
    22     7     8   am
    23     7     9    2
    24    19    20   ar
    25    20    15   ar
    26     6     1   ar
    27    28    23    1
    28    12    13    1
    29    21    22    1
    30    29    30    1
    31    29    31    1
    32     8    10    1
    33     8    11    1
@<TRIPOS>MOLECULE
*****
 31 33 0 0 0
SMALL
GASTEIGER

@<TRIPOS>ATOM
      1 C          64.7008   91.8697   12.7912 C.ar    1  UNL1        0.0764
      2 C          63.4970   91.2042   12.1928 C.ar    1  UNL1        0.0522
      3 C          63.0027   89.9036   12.7536 C.ar    1  UNL1        0.1515
      4 N          63.7122   89.2687   13.9126 N.ar    1  UNL1       -0.1329
      5 N          64.9160   89.9342   14.5110 N.ar    1  UNL1       -0.1409
      6 C          65.4103   91.2346   13.9503 C.ar    1  UNL1        0.1691
      7 C          66.6141   91.9001   14.5486 C.2     1  UNL1        0.2635
      8 N          67.8461   91.0969   14.8435 N.am    1  UNL1       -0.3240
      9 O          66.5859   93.3689   14.8520 O.2     1  UNL1       -0.2686
     10 H          67.8646   90.1330   14.6444 H       1  UNL1        0.1453
     11 H          68.6362   91.5337   15.2362 H       1  UNL1        0.1453
     12 N          65.1951   93.1701   12.2305 N.pl3   1  UNL1       -0.2965
     13 H          64.8450   94.0215   12.5795 H       1  UNL1        0.1537
     14 C          67.3176   95.4214    8.0559 C.3     1  UNL1        0.0521
     15 C          67.2842   94.2991    9.0506 C.ar    1  UNL1        0.0608
     16 C          68.2784   93.1803    8.9528 C.ar    1  UNL1        0.0148
     17 C          68.2449   92.0580    9.9475 C.ar    1  UNL1        0.0041
     18 C          67.2172   92.0546   11.0400 C.ar    1  UNL1        0.0344
     19 C          66.2229   93.1735   11.1379 C.ar    1  UNL1        0.1318
     20 N          66.2564   94.2957   10.1432 N.ar    1  UNL1       -0.2349
     21 N          61.7990   89.2381   12.1553 N.pl3   1  UNL1       -0.3170
     22 H          60.8963   89.5645   12.3742 H       1  UNL1        0.1482
     23 C          61.9705   88.0753   11.2233 C.3     1  UNL1        0.0845
     24 C          62.4956   86.7695   11.7420 C.3     1  UNL1        0.0209
     25 C          62.6672   85.6067   10.8101 C.3     1  UNL1        0.0018
     26 C          62.3135   85.7497    9.3594 C.3     1  UNL1        0.0015
     27 C          61.7883   87.0556    8.8407 C.3     1  UNL1        0.0172
     28 C          61.6168   88.2183    9.7726 C.3     1  UNL1        0.0689
     29 N          61.0916   89.5242    9.2539 N.3     1  UNL1       -0.3209
     30 H          61.0400   90.1976   10.0183 H       1  UNL1        0.1189
     31 H          60.1610   89.3842    8.8607 H       1  UNL1        0.1189
@<TRIPOS>BOND
     1    14    15    1
     2    15    16   ar
     3    16    17   ar
     4    17    18   ar
     5    18    19   ar
     6    19    12    1
     7    12     1    1
     8     1     2   ar
     9     2     3   ar
    10     3    21    1
    11    23    21    1
    12    23    24    1
    13    24    25    1
    14    25    26    1
    15    26    27    1
    16    27    28    1
    17    28    29    1
    18     3     4   ar
    19     4     5   ar
    20     5     6   ar
    21     6     7    1
    22     7     8   am
    23     7     9    2
    24    19    20   ar
    25    20    15   ar
    26     6     1   ar
    27    28    23    1
    28    12    13    1
    29    21    22    1
    30    29    30    1
    31    29    31    1
    32     8    10    1
    33     8    11    1
@<TRIPOS>MOLECULE
*****
 31 33 0 0 0
SMALL
GASTEIGER

@<TRIPOS>ATOM
      1 C          63.1120   86.3610   12.5485 C.ar    1  UNL1        0.0764
      2 C          62.7987   87.7559   12.0944 C.ar    1  UNL1        0.0522
      3 C          63.2617   88.9302   12.9048 C.ar    1  UNL1        0.1515
      4 N          64.0380   88.7097   14.1692 N.ar    1  UNL1       -0.1329
      5 N          64.3513   87.3148   14.6232 N.ar    1  UNL1       -0.1409
      6 C          63.8883   86.1405   13.8129 C.ar    1  UNL1        0.1691
      7 C          64.2017   84.7456   14.2670 C.2     1  UNL1        0.2635
      8 N          65.6235   84.3414   14.5215 N.am    1  UNL1       -0.3240
      9 O          63.0930   83.7550   14.4665 O.2     1  UNL1       -0.2686
     10 H          66.3511   84.9915   14.3905 H       1  UNL1        0.1453
     11 H          65.8292   83.4259   14.8195 H       1  UNL1        0.1453
     12 N          62.6491   85.1867   11.7382 N.pl3   1  UNL1       -0.2965
     13 H          62.6083   84.2920   12.1469 H       1  UNL1        0.1537
     14 C          59.2351   86.8804    8.2060 C.3     1  UNL1        0.0521
     15 C          60.5413   86.2225    8.5390 C.ar    1  UNL1        0.0608
     16 C          61.4467   85.7534    7.4390 C.ar    1  UNL1        0.0148
     17 C          62.7529   85.0954    7.7719 C.ar    1  UNL1        0.0041
     18 C          63.1537   84.9065    9.2050 C.ar    1  UNL1        0.0344
     19 C          62.2483   85.3756   10.3050 C.ar    1  UNL1        0.1318
     20 N          60.9421   86.0336    9.9720 N.ar    1  UNL1       -0.2349
     21 N          62.9484   90.3251   12.4507 N.pl3   1  UNL1       -0.3170
     22 H          62.0123   90.6044   12.3284 H       1  UNL1        0.1482
     23 C          64.0614   91.2945   12.1830 C.3     1  UNL1        0.0845
     24 C          65.0527   91.6149   13.2621 C.3     1  UNL1        0.0209
     25 C          66.1657   92.5843   12.9944 C.3     1  UNL1        0.0018
     26 C          66.2873   93.2332   11.6475 C.3     1  UNL1        0.0015
     27 C          65.2959   92.9128   10.5684 C.3     1  UNL1        0.0172
     28 C          64.1830   91.9434   10.8361 C.3     1  UNL1        0.0689
     29 N          63.1916   91.6230    9.7570 N.3     1  UNL1       -0.3209
     30 H          62.5099   90.9513   10.1100 H       1  UNL1        0.1189
     31 H          63.6791   91.2231    8.9552 H       1  UNL1        0.1189
@<TRIPOS>BOND
     1    14    15    1
     2    15    16   ar
     3    16    17   ar
     4    17    18   ar
     5    18    19   ar
     6    19    12    1
     7    12     1    1
     8     1     2   ar
     9     2     3   ar
    10     3    21    1
    11    23    21    1
    12    23    24    1
    13    24    25    1
    14    25    26    1
    15    26    27    1
    16    27    28    1
    17    28    29    1
    18     3     4   ar
    19     4     5   ar
    20     5     6   ar
    21     6     7    1
    22     7     8   am
    23     7     9    2
    24    19    20   ar
    25    20    15   ar
    26     6     1   ar
    27    28    23    1
    28    12    13    1
    29    21    22    1
    30    29    30    1
    31    29    31    1
    32     8    10    1
    33     8    11    1
