@<TRIPOS>MOLECULE
*****
 28 31 0 0 0
SMALL
GASTEIGER

@<TRIPOS>ATOM
      1 C          61.8302   88.4579    9.7925 C.3     1  UNL1        0.0736
      2 C          62.6050   89.0518   10.9313 C.ar    1  UNL1        0.1392
      3 N          63.3557   90.3360   10.7386 N.ar    1  UNL1       -0.2336
      4 C          64.1306   90.9299   11.8774 C.ar    1  UNL1        0.0779
      5 C          64.1548   90.2395   13.2089 C.ar    1  UNL1        0.0139
      6 C          63.4042   88.9553   13.4015 C.ar    1  UNL1        0.0969
      7 N          62.6293   88.3614   12.2627 N.ar    1  UNL1       -0.2295
      8 C          64.9297   90.8334   14.3477 C.3     1  UNL1        0.0490
      9 C          65.6803   92.1177   14.1550 C.3     1  UNL1        0.0805
     10 C          66.4552   92.7116   15.2938 C.3     1  UNL1        0.0219
     11 N          65.6561   92.8081   12.8236 N.am    1  UNL1       -0.2716
     12 C          66.4067   94.0924   12.6309 C.2     1  UNL1        0.2515
     13 O          67.1816   94.6863   13.7697 O.2     1  UNL1       -0.2698
     14 C          64.8812   92.2142   11.6848 C.3     1  UNL1        0.1392
     15 C          66.3825   94.7829   11.2994 C.ar    1  UNL1        0.0810
     16 C          65.6610   96.0888   11.1448 C.ar    1  UNL1        0.0076
     17 C          65.6369   96.7791    9.8134 C.ar    1  UNL1        0.0117
     18 C          66.3342   96.1636    8.6366 C.ar    1  UNL1        0.0599
     19 CL         66.3100   96.8541    7.3051 Cl      1  UNL1       -0.0822
     20 C          67.0557   94.8577    8.7912 C.ar    1  UNL1        0.0412
     21 C          67.0799   94.1673   10.1226 C.ar    1  UNL1        0.1453
     22 F          67.8014   92.8613   10.2773 F       1  UNL1       -0.2040
     23 C          63.4284   88.2648   14.7330 C.ar    1  UNL1        0.0928
     24 C          64.0603   86.9363   15.0259 C.ar    1  UNL1        0.0424
     25 C          63.8474   86.6320   16.4792 C.ar    1  UNL1        0.1215
     26 N          63.0839   87.7726   17.0845 N.ar    1  UNL1       -0.1710
     27 N          62.8250   88.7816   16.0053 N.ar    1  UNL1       -0.2742
     28 H          62.3435   89.6336   16.1131 H       1  UNL1        0.1890
@<TRIPOS>BOND
     1     1     2    1
     2     2     3   ar
     3     3     4   ar
     4     4     5   ar
     5     5     6   ar
     6     6    23    1
     7    23    24   ar
     8    24    25   ar
     9    25    26   ar
    10    26    27   ar
    11     6     7   ar
    12     5     8    1
    13     8     9    1
    14     9    10    1
    15     9    11    1
    16    11    12   am
    17    12    13    2
    18    12    15    1
    19    15    16   ar
    20    16    17   ar
    21    17    18   ar
    22    18    19    1
    23    18    20   ar
    24    20    21   ar
    25    21    22    1
    26    11    14    1
    27     7     2   ar
    28    21    15   ar
    29    14     4    1
    30    27    23   ar
    31    27    28    1
@<TRIPOS>MOLECULE
*****
 28 31 0 0 0
SMALL
GASTEIGER

@<TRIPOS>ATOM
      1 C          61.8317   89.4920    9.6119 C.3     1  UNL1        0.0736
      2 C          62.4137   88.9589   10.8874 C.ar    1  UNL1        0.1392
      3 N          62.6021   87.4815   11.0660 N.ar    1  UNL1       -0.2336
      4 C          63.1842   86.9484   12.3415 C.ar    1  UNL1        0.0779
      5 C          63.5777   87.8926   13.4385 C.ar    1  UNL1        0.0139
      6 C          63.3893   89.3699   13.2600 C.ar    1  UNL1        0.0969
      7 N          62.8073   89.9031   11.9844 N.ar    1  UNL1       -0.2295
      8 C          64.1598   87.3595   14.7141 C.3     1  UNL1        0.0490
      9 C          64.3482   85.8821   14.8926 C.3     1  UNL1        0.0805
     10 C          64.9302   85.3490   16.1682 C.3     1  UNL1        0.0219
     11 N          63.9546   84.9378   13.7956 N.am    1  UNL1       -0.2716
     12 C          64.1430   83.4605   13.9741 C.2     1  UNL1        0.2515
     13 O          64.7250   82.9274   15.2497 O.2     1  UNL1       -0.2698
     14 C          63.3725   85.4710   12.5200 C.3     1  UNL1        0.1392
     15 C          63.7494   82.5162   12.8771 C.ar    1  UNL1        0.0810
     16 C          64.2638   82.7286   11.4842 C.ar    1  UNL1        0.0076
     17 C          63.8702   81.7843   10.3872 C.ar    1  UNL1        0.0117
     18 C          62.9621   80.6276   10.6832 C.ar    1  UNL1        0.0599
     19 CL         62.5685   79.6833    9.5861 Cl      1  UNL1       -0.0822
     20 C          62.4477   80.4153   12.0761 C.ar    1  UNL1        0.0412
     21 C          62.8413   81.3595   13.1730 C.ar    1  UNL1        0.1453
     22 F          62.3268   81.1472   14.5660 F       1  UNL1       -0.2040
     23 C          63.7829   90.3143   14.3571 C.ar    1  UNL1        0.0928
     24 C          64.9895   91.2055   14.3626 C.ar    1  UNL1        0.0424
     25 C          64.9914   91.9751   15.6500 C.ar    1  UNL1        0.1215
     26 N          63.7860   91.5596   16.4402 N.ar    1  UNL1       -0.1710
     27 N          63.0392   90.5331   15.6411 N.ar    1  UNL1       -0.2742
     28 H          62.2069   90.0822   15.9119 H       1  UNL1        0.1890
@<TRIPOS>BOND
     1     1     2    1
     2     2     3   ar
     3     3     4   ar
     4     4     5   ar
     5     5     6   ar
     6     6    23    1
     7    23    24   ar
     8    24    25   ar
     9    25    26   ar
    10    26    27   ar
    11     6     7   ar
    12     5     8    1
    13     8     9    1
    14     9    10    1
    15     9    11    1
    16    11    12   am
    17    12    13    2
    18    12    15    1
    19    15    16   ar
    20    16    17   ar
    21    17    18   ar
    22    18    19    1
    23    18    20   ar
    24    20    21   ar
    25    21    22    1
    26    11    14    1
    27     7     2   ar
    28    21    15   ar
    29    14     4    1
    30    27    23   ar
    31    27    28    1
@<TRIPOS>MOLECULE
*****
 28 31 0 0 0
SMALL
GASTEIGER

@<TRIPOS>ATOM
      1 C          63.0865   84.5645   14.1901 C.3     1  UNL1        0.0736
      2 C          62.9177   85.7292   13.2601 C.ar    1  UNL1        0.1392
      3 N          63.6655   87.0048   13.5124 N.ar    1  UNL1       -0.2336
      4 C          63.4966   88.1696   12.5824 C.ar    1  UNL1        0.0779
      5 C          62.5800   88.0588   11.4003 C.ar    1  UNL1        0.0139
      6 C          61.8323   86.7832   11.1481 C.ar    1  UNL1        0.0969
      7 N          62.0011   85.6184   12.0780 N.ar    1  UNL1       -0.2295
      8 C          62.4112   89.2236   10.4704 C.3     1  UNL1        0.0490
      9 C          63.1589   90.4992   10.7226 C.3     1  UNL1        0.0805
     10 C          62.9901   91.6640    9.7926 C.3     1  UNL1        0.0219
     11 N          64.0756   90.6100   11.9048 N.am    1  UNL1       -0.2716
     12 C          64.8234   91.8856   12.1570 C.2     1  UNL1        0.2515
     13 O          64.6545   93.0504   11.2271 O.2     1  UNL1       -0.2698
     14 C          64.2444   89.4453   12.8347 C.3     1  UNL1        0.1392
     15 C          65.7400   91.9965   13.3392 C.ar    1  UNL1        0.0810
     16 C          65.1705   92.0883   14.7238 C.ar    1  UNL1        0.0076
     17 C          66.0872   92.1991   15.9059 C.ar    1  UNL1        0.0117
     18 C          67.5733   92.2182   15.7034 C.ar    1  UNL1        0.0599
     19 CL         68.4900   92.3291   16.8856 Cl      1  UNL1       -0.0822
     20 C          68.1428   92.1264   14.3188 C.ar    1  UNL1        0.0412
     21 C          67.2262   92.0156   13.1367 C.ar    1  UNL1        0.1453
     22 F          67.7957   91.9238   11.7520 F       1  UNL1       -0.2040
     23 C          60.9156   86.6724    9.9659 C.ar    1  UNL1        0.0928
     24 C          61.2143   85.9550    8.6828 C.ar    1  UNL1        0.0424
     25 C          60.0227   86.0986    7.7832 C.ar    1  UNL1        0.1215
     26 N          58.9875   86.9048    8.5102 N.ar    1  UNL1       -0.1710
     27 N          59.5394   87.2594    9.8592 N.ar    1  UNL1       -0.2742
     28 H          59.0791   87.7851   10.5527 H       1  UNL1        0.1890
@<TRIPOS>BOND
     1     1     2    1
     2     2     3   ar
     3     3     4   ar
     4     4     5   ar
     5     5     6   ar
     6     6    23    1
     7    23    24   ar
     8    24    25   ar
     9    25    26   ar
    10    26    27   ar
    11     6     7   ar
    12     5     8    1
    13     8     9    1
    14     9    10    1
    15     9    11    1
    16    11    12   am
    17    12    13    2
    18    12    15    1
    19    15    16   ar
    20    16    17   ar
    21    17    18   ar
    22    18    19    1
    23    18    20   ar
    24    20    21   ar
    25    21    22    1
    26    11    14    1
    27     7     2   ar
    28    21    15   ar
    29    14     4    1
    30    27    23   ar
    31    27    28    1
@<TRIPOS>MOLECULE
*****
 28 31 0 0 0
SMALL
GASTEIGER

@<TRIPOS>ATOM
      1 C          60.4697   88.0610    8.7030 C.3     1  UNL1        0.0736
      2 C          61.3160   87.8135    9.9164 C.ar    1  UNL1        0.1392
      3 N          61.6913   86.4117   10.2958 N.ar    1  UNL1       -0.2336
      4 C          62.5376   86.1642   11.5093 C.ar    1  UNL1        0.0779
      5 C          63.0087   87.3185   12.3433 C.ar    1  UNL1        0.0139
      6 C          62.6333   88.7203   11.9639 C.ar    1  UNL1        0.0969
      7 N          61.7870   88.9678   10.7505 N.ar    1  UNL1       -0.2295
      8 C          63.8550   87.0710   13.5568 C.3     1  UNL1        0.0490
      9 C          64.2303   85.6692   13.9362 C.3     1  UNL1        0.0805
     10 C          65.0766   85.4217   15.1497 C.3     1  UNL1        0.0219
     11 N          63.7593   84.5148   13.1021 N.am    1  UNL1       -0.2716
     12 C          64.1346   83.1129   13.4816 C.2     1  UNL1        0.2515
     13 O          64.9809   82.8654   14.6950 O.2     1  UNL1       -0.2698
     14 C          62.9130   84.7623   11.8887 C.3     1  UNL1        0.1392
     15 C          63.6636   81.9585   12.6475 C.ar    1  UNL1        0.0810
     16 C          62.9019   80.8344   13.2847 C.ar    1  UNL1        0.0076
     17 C          62.4310   79.6801   12.4506 C.ar    1  UNL1        0.0117
     18 C          62.7216   79.6499   10.9794 C.ar    1  UNL1        0.0599
     19 CL         62.2506   78.4955   10.1453 Cl      1  UNL1       -0.0822
     20 C          63.4833   80.7741   10.3422 C.ar    1  UNL1        0.0412
     21 C          63.9543   81.9284   11.1762 C.ar    1  UNL1        0.1453
     22 F          64.7160   83.0527   10.5390 F       1  UNL1       -0.2040
     23 C          63.1044   89.8747   12.7980 C.ar    1  UNL1        0.0928
     24 C          64.0236   90.9710   12.3472 C.ar    1  UNL1        0.0424
     25 C          64.2262   91.9093   13.4998 C.ar    1  UNL1        0.1215
     26 N          63.4322   91.3929   14.6630 N.ar    1  UNL1       -0.1710
     27 N          62.7388   90.1355   14.2292 N.ar    1  UNL1       -0.2742
     28 H          62.1477   89.5790   14.7861 H       1  UNL1        0.1890
@<TRIPOS>BOND
     1     1     2    1
     2     2     3   ar
     3     3     4   ar
     4     4     5   ar
     5     5     6   ar
     6     6    23    1
     7    23    24   ar
     8    24    25   ar
     9    25    26   ar
    10    26    27   ar
    11     6     7   ar
    12     5     8    1
    13     8     9    1
    14     9    10    1
    15     9    11    1
    16    11    12   am
    17    12    13    2
    18    12    15    1
    19    15    16   ar
    20    16    17   ar
    21    17    18   ar
    22    18    19    1
    23    18    20   ar
    24    20    21   ar
    25    21    22    1
    26    11    14    1
    27     7     2   ar
    28    21    15   ar
    29    14     4    1
    30    27    23   ar
    31    27    28    1
@<TRIPOS>MOLECULE
*****
 28 31 0 0 0
SMALL
GASTEIGER

@<TRIPOS>ATOM
      1 C          60.0535   87.0212    8.0260 C.3     1  UNL1        0.0736
      2 C          60.9319   87.2214    9.2253 C.ar    1  UNL1        0.1392
      3 N          61.2632   86.0599   10.1146 N.ar    1  UNL1       -0.2336
      4 C          62.1416   86.2601   11.3139 C.ar    1  UNL1        0.0779
      5 C          62.6887   87.6219   11.6239 C.ar    1  UNL1        0.0139
      6 C          62.3575   88.7834   10.7345 C.ar    1  UNL1        0.0969
      7 N          61.4791   88.5832    9.5352 N.ar    1  UNL1       -0.2295
      8 C          63.5671   87.8221   12.8232 C.3     1  UNL1        0.0490
      9 C          63.8984   86.6605   13.7125 C.3     1  UNL1        0.0805
     10 C          64.7768   86.8607   14.9118 C.3     1  UNL1        0.0219
     11 N          63.3512   85.2987   13.4026 N.am    1  UNL1       -0.2716
     12 C          63.6824   84.1371   14.2919 C.2     1  UNL1        0.2515
     13 O          64.5609   84.3373   15.4912 O.2     1  UNL1       -0.2698
     14 C          62.4728   85.0984   12.2033 C.3     1  UNL1        0.1392
     15 C          63.1353   82.7752   13.9820 C.ar    1  UNL1        0.0810
     16 C          61.8826   82.2991   14.6559 C.ar    1  UNL1        0.0076
     17 C          61.3355   80.9372   14.3459 C.ar    1  UNL1        0.0117
     18 C          62.0411   80.0516   13.3621 C.ar    1  UNL1        0.0599
     19 CL         61.4939   78.6897   13.0522 Cl      1  UNL1       -0.0822
     20 C          63.2937   80.5278   12.6883 C.ar    1  UNL1        0.0412
     21 C          63.8408   81.8896   12.9982 C.ar    1  UNL1        0.1453
     22 F          65.0935   82.3658   12.3243 F       1  UNL1       -0.2040
     23 C          62.9047   90.1453   11.0444 C.ar    1  UNL1        0.0928
     24 C          63.5027   91.1013   10.0552 C.ar    1  UNL1        0.0424
     25 C          63.9175   92.3371   10.7973 C.ar    1  UNL1        0.1215
     26 N          63.5758   92.1449   12.2452 N.ar    1  UNL1       -0.1710
     27 N          62.9499   90.7903   12.3979 N.ar    1  UNL1       -0.2742
     28 H          62.6256   90.3941   13.2388 H       1  UNL1        0.1890
@<TRIPOS>BOND
     1     1     2    1
     2     2     3   ar
     3     3     4   ar
     4     4     5   ar
     5     5     6   ar
     6     6    23    1
     7    23    24   ar
     8    24    25   ar
     9    25    26   ar
    10    26    27   ar
    11     6     7   ar
    12     5     8    1
    13     8     9    1
    14     9    10    1
    15     9    11    1
    16    11    12   am
    17    12    13    2
    18    12    15    1
    19    15    16   ar
    20    16    17   ar
    21    17    18   ar
    22    18    19    1
    23    18    20   ar
    24    20    21   ar
    25    21    22    1
    26    11    14    1
    27     7     2   ar
    28    21    15   ar
    29    14     4    1
    30    27    23   ar
    31    27    28    1
@<TRIPOS>MOLECULE
*****
 28 31 0 0 0
SMALL
GASTEIGER

@<TRIPOS>ATOM
      1 C          59.8343   89.5075    9.6925 C.3     1  UNL1        0.0736
      2 C          60.5284   88.1783    9.7307 C.ar    1  UNL1        0.1392
      3 N          61.0462   87.6397   11.0313 N.ar    1  UNL1       -0.2336
      4 C          61.7403   86.3105   11.0695 C.ar    1  UNL1        0.0779
      5 C          61.9167   85.5200    9.8071 C.ar    1  UNL1        0.0139
      6 C          61.3990   86.0586    8.5064 C.ar    1  UNL1        0.0969
      7 N          60.7049   87.3878    8.4682 N.ar    1  UNL1       -0.2295
      8 C          62.6109   84.1908    9.8453 C.3     1  UNL1        0.0490
      9 C          63.1286   83.6522   11.1459 C.3     1  UNL1        0.0805
     10 C          63.8228   82.3230   11.1841 C.3     1  UNL1        0.0219
     11 N          62.9522   84.4427   12.4085 N.am    1  UNL1       -0.2716
     12 C          63.4699   83.9041   13.7092 C.2     1  UNL1        0.2515
     13 O          64.1641   82.5749   13.7474 O.2     1  UNL1       -0.2698
     14 C          62.2580   85.7719   12.3703 C.3     1  UNL1        0.1392
     15 C          63.2935   84.6946   14.9717 C.ar    1  UNL1        0.0810
     16 C          62.0288   84.5644   15.7676 C.ar    1  UNL1        0.0076
     17 C          61.8524   85.3549   17.0301 C.ar    1  UNL1        0.0117
     18 C          62.9408   86.2757   17.4967 C.ar    1  UNL1        0.0599
     19 CL         62.7644   87.0662   18.7593 Cl      1  UNL1       -0.0822
     20 C          64.2055   86.4059   16.7008 C.ar    1  UNL1        0.0412
     21 C          64.3819   85.6154   15.4383 C.ar    1  UNL1        0.1453
     22 F          65.6466   85.7456   14.6424 F       1  UNL1       -0.2040
     23 C          61.5754   85.2681    7.2438 C.ar    1  UNL1        0.0928
     24 C          62.8802   84.9632    6.5695 C.ar    1  UNL1        0.0424
     25 C          62.5893   84.1504    5.3429 C.ar    1  UNL1        0.1215
     26 N          61.1047   83.9529    5.2591 N.ar    1  UNL1       -0.1710
     27 N          60.4781   84.6437    6.4339 N.ar    1  UNL1       -0.2742
     28 H          59.5156   84.6807    6.6377 H       1  UNL1        0.1890
@<TRIPOS>BOND
     1     1     2    1
     2     2     3   ar
     3     3     4   ar
     4     4     5   ar
     5     5     6   ar
     6     6    23    1
     7    23    24   ar
     8    24    25   ar
     9    25    26   ar
    10    26    27   ar
    11     6     7   ar
    12     5     8    1
    13     8     9    1
    14     9    10    1
    15     9    11    1
    16    11    12   am
    17    12    13    2
    18    12    15    1
    19    15    16   ar
    20    16    17   ar
    21    17    18   ar
    22    18    19    1
    23    18    20   ar
    24    20    21   ar
    25    21    22    1
    26    11    14    1
    27     7     2   ar
    28    21    15   ar
    29    14     4    1
    30    27    23   ar
    31    27    28    1
