@<TRIPOS>MOLECULE
*****
 25 28 0 0 0
SMALL
GASTEIGER

@<TRIPOS>ATOM
      1 N          64.2130   90.9316   13.6549 N.ar    1  UNL1       -0.3087
      2 C          65.3702   91.7244   13.1237 C.ar    1  UNL1        0.1493
      3 N          65.1310   91.9723   11.6638 N.ar    1  UNL1       -0.2284
      4 C          63.8259   91.3326   11.2928 C.ar    1  UNL1        0.0984
      5 C          63.0808   91.2527    9.9934 C.ar    1  UNL1        0.0206
      6 C          61.7685   90.5297    9.9246 C.ar    1  UNL1        0.0016
      7 C          61.2011   89.8865   11.1552 C.ar    1  UNL1        0.0016
      8 C          61.9462   89.9664   12.4546 C.ar    1  UNL1        0.0188
      9 C          63.2586   90.6894   12.5234 C.ar    1  UNL1        0.0789
     10 C          66.5581   92.1880   13.9136 C.3     1  UNL1        0.1869
     11 C          67.9448   91.8617   13.4440 C.3     1  UNL1        0.1064
     12 N          69.1327   92.3253   14.2339 N.3     1  UNL1       -0.2930
     13 C          68.9339   93.1152   15.4935 C.3     1  UNL1        0.1011
     14 C          67.5472   93.4414   15.9631 C.3     1  UNL1        0.1597
     15 O          66.3593   92.9778   15.1732 O.3     1  UNL1       -0.3458
     16 H          69.6942   92.9039   13.6091 H       1  UNL1        0.1234
     17 C          64.0405   90.4631   15.0694 C.3     1  UNL1        0.1339
     18 C          63.5536   84.6006   16.2500 C.3     1  UNL1        0.0307
     19 C          63.6753   86.0662   15.9549 C.ar    1  UNL1       -0.0258
     20 C          64.3175   86.5235   14.6786 C.ar    1  UNL1       -0.0048
     21 C          64.4392   87.9891   14.3835 C.ar    1  UNL1       -0.0027
     22 C          63.9188   88.9976   15.3646 C.ar    1  UNL1        0.0001
     23 C          63.2767   88.5402   16.6407 C.ar    1  UNL1       -0.0070
     24 C          63.1550   87.0746   16.9358 C.ar    1  UNL1       -0.0260
     25 C          62.5129   86.6173   18.2120 C.3     1  UNL1        0.0307
@<TRIPOS>BOND
     1    18    19    1
     2    19    20   ar
     3    20    21   ar
     4    21    22   ar
     5    22    17    1
     6    17     1    1
     7     1     2   ar
     8     2    10    1
     9    10    11    1
    10    11    12    1
    11    12    13    1
    12    13    14    1
    13    14    15    1
    14     2     3   ar
    15     3     4   ar
    16     4     5   ar
    17     5     6   ar
    18     6     7   ar
    19     7     8   ar
    20     8     9   ar
    21    22    23   ar
    22    23    24   ar
    23    24    25    1
    24    24    19   ar
    25     9     1   ar
    26    15    10    1
    27     9     4   ar
    28    12    16    1
@<TRIPOS>MOLECULE
*****
 25 28 0 0 0
SMALL
GASTEIGER

@<TRIPOS>ATOM
      1 N          61.5186   87.8445   11.0514 N.ar    1  UNL1       -0.3087
      2 C          62.1029   86.4859   11.3015 C.ar    1  UNL1        0.1493
      3 N          61.7332   85.6026   10.1468 N.ar    1  UNL1       -0.2284
      4 C          60.9204   86.4154    9.1831 C.ar    1  UNL1        0.0984
      5 C          60.2840   86.0729    7.8688 C.ar    1  UNL1        0.0206
      6 C          59.5149   87.1159    7.1134 C.ar    1  UNL1        0.0016
      7 C          59.3822   88.5015    7.6725 C.ar    1  UNL1        0.0016
      8 C          60.0187   88.8440    8.9868 C.ar    1  UNL1        0.0188
      9 C          60.7878   87.8010    9.7421 C.ar    1  UNL1        0.0789
     10 C          62.9144   86.0815   12.4964 C.3     1  UNL1        0.1869
     11 C          63.0288   84.6333   12.8701 C.3     1  UNL1        0.1064
     12 N          63.8403   84.2289   14.0650 N.3     1  UNL1       -0.2930
     13 C          64.5374   85.2726   14.8863 C.3     1  UNL1        0.1011
     14 C          64.4230   86.7208   14.5127 C.3     1  UNL1        0.1597
     15 O          63.6115   87.1252   13.3177 O.3     1  UNL1       -0.3458
     16 H          64.5602   83.5891   13.7292 H       1  UNL1        0.1234
     17 C          61.6431   89.0374   11.9523 C.3     1  UNL1        0.1339
     18 C          65.8643   93.1681   10.8946 C.3     1  UNL1        0.0307
     19 C          64.8090   92.1354   11.1591 C.ar    1  UNL1       -0.0258
     20 C          63.8542   91.7431   10.0707 C.ar    1  UNL1       -0.0048
     21 C          62.7990   90.7104   10.3351 C.ar    1  UNL1       -0.0027
     22 C          62.6984   90.0700   11.6879 C.ar    1  UNL1        0.0001
     23 C          63.6532   90.4624   12.7762 C.ar    1  UNL1       -0.0070
     24 C          64.7084   91.4951   12.5118 C.ar    1  UNL1       -0.0260
     25 C          65.6632   91.8876   13.6001 C.3     1  UNL1        0.0307
@<TRIPOS>BOND
     1    18    19    1
     2    19    20   ar
     3    20    21   ar
     4    21    22   ar
     5    22    17    1
     6    17     1    1
     7     1     2   ar
     8     2    10    1
     9    10    11    1
    10    11    12    1
    11    12    13    1
    12    13    14    1
    13    14    15    1
    14     2     3   ar
    15     3     4   ar
    16     4     5   ar
    17     5     6   ar
    18     6     7   ar
    19     7     8   ar
    20     8     9   ar
    21    22    23   ar
    22    23    24   ar
    23    24    25    1
    24    24    19   ar
    25     9     1   ar
    26    15    10    1
    27     9     4   ar
    28    12    16    1
@<TRIPOS>MOLECULE
*****
 25 28 0 0 0
SMALL
GASTEIGER

@<TRIPOS>ATOM
      1 N          63.1326   84.0174   13.0745 N.ar    1  UNL1       -0.3087
      2 C          62.8919   84.0488   14.5547 C.ar    1  UNL1        0.1493
      3 N          62.5961   82.6492   15.0060 N.ar    1  UNL1       -0.2284
      4 C          62.6540   81.7528   13.8046 C.ar    1  UNL1        0.0984
      5 C          62.4476   80.2759   13.6435 C.ar    1  UNL1        0.0206
      6 C          62.5728   79.6446   12.2886 C.ar    1  UNL1        0.0016
      7 C          62.9044   80.4902   11.0949 C.ar    1  UNL1        0.0016
      8 C          63.1107   81.9672   11.2560 C.ar    1  UNL1        0.0188
      9 C          62.9856   82.5985   12.6109 C.ar    1  UNL1        0.0789
     10 C          62.9388   85.2660   15.4300 C.3     1  UNL1        0.1869
     11 C          63.7917   86.4370   15.0412 C.3     1  UNL1        0.1064
     12 N          63.8386   87.6543   15.9165 N.3     1  UNL1       -0.2930
     13 C          63.0326   87.7005   17.1807 C.3     1  UNL1        0.1011
     14 C          62.1797   86.5295   17.5695 C.3     1  UNL1        0.1597
     15 O          62.1328   85.3123   16.6942 O.3     1  UNL1       -0.3458
     16 H          63.5330   88.4409   15.3436 H       1  UNL1        0.1234
     17 C          63.4624   85.1978   12.2097 C.3     1  UNL1        0.1339
     18 C          59.9343   86.5901    7.5606 C.3     1  UNL1        0.0307
     19 C          60.8164   86.2420    8.7228 C.ar    1  UNL1       -0.0258
     20 C          60.4651   86.7202   10.1005 C.ar    1  UNL1       -0.0048
     21 C          61.3471   86.3721   11.2628 C.ar    1  UNL1       -0.0027
     22 C          62.5805   85.5458   11.0474 C.ar    1  UNL1        0.0001
     23 C          62.9317   85.0677    9.6697 C.ar    1  UNL1       -0.0070
     24 C          62.0496   85.4158    8.5075 C.ar    1  UNL1       -0.0260
     25 C          62.4008   84.9377    7.1298 C.3     1  UNL1        0.0307
@<TRIPOS>BOND
     1    18    19    1
     2    19    20   ar
     3    20    21   ar
     4    21    22   ar
     5    22    17    1
     6    17     1    1
     7     1     2   ar
     8     2    10    1
     9    10    11    1
    10    11    12    1
    11    12    13    1
    12    13    14    1
    13    14    15    1
    14     2     3   ar
    15     3     4   ar
    16     4     5   ar
    17     5     6   ar
    18     6     7   ar
    19     7     8   ar
    20     8     9   ar
    21    22    23   ar
    22    23    24   ar
    23    24    25    1
    24    24    19   ar
    25     9     1   ar
    26    15    10    1
    27     9     4   ar
    28    12    16    1
@<TRIPOS>MOLECULE
*****
 25 28 0 0 0
SMALL
GASTEIGER

@<TRIPOS>ATOM
      1 N          63.6586   90.1996   13.0355 N.ar    1  UNL1       -0.3087
      2 C          64.3883   89.7329   14.2601 C.ar    1  UNL1        0.1493
      3 N          65.6442   90.5430   14.3882 N.ar    1  UNL1       -0.2284
      4 C          65.6908   91.5103   13.2428 C.ar    1  UNL1        0.0984
      5 C          66.6920   92.5570   12.8530 C.ar    1  UNL1        0.0206
      6 C          66.4661   93.3914   11.6273 C.ar    1  UNL1        0.0016
      7 C          65.2389   93.1792   10.7912 C.ar    1  UNL1        0.0016
      8 C          64.2376   92.1326   11.1809 C.ar    1  UNL1        0.0188
      9 C          64.4636   91.2981   12.4067 C.ar    1  UNL1        0.0789
     10 C          63.9406   88.6468   15.1929 C.3     1  UNL1        0.1869
     11 C          63.1769   88.9937   16.4364 C.3     1  UNL1        0.1064
     12 N          62.7293   87.9076   17.3692 N.3     1  UNL1       -0.2930
     13 C          63.0453   86.4746   17.0584 C.3     1  UNL1        0.1011
     14 C          63.8090   86.1277   15.8149 C.3     1  UNL1        0.1597
     15 O          64.2567   87.2138   14.8821 O.3     1  UNL1       -0.3458
     16 H          61.7139   87.9773   17.4365 H       1  UNL1        0.1234
     17 C          62.3532   89.6622   12.5286 C.3     1  UNL1        0.1339
     18 C          62.3008   85.3458    8.3613 C.3     1  UNL1        0.0307
     19 C          62.3139   86.4249    9.4032 C.ar    1  UNL1       -0.0258
     20 C          62.1130   87.8565    9.0027 C.ar    1  UNL1       -0.0048
     21 C          62.1261   88.9355   10.0446 C.ar    1  UNL1       -0.0027
     22 C          62.3401   88.5831   11.4868 C.ar    1  UNL1        0.0001
     23 C          62.5410   87.1515   11.8872 C.ar    1  UNL1       -0.0070
     24 C          62.5279   86.0725   10.8454 C.ar    1  UNL1       -0.0260
     25 C          62.7288   84.6409   11.2457 C.3     1  UNL1        0.0307
@<TRIPOS>BOND
     1    18    19    1
     2    19    20   ar
     3    20    21   ar
     4    21    22   ar
     5    22    17    1
     6    17     1    1
     7     1     2   ar
     8     2    10    1
     9    10    11    1
    10    11    12    1
    11    12    13    1
    12    13    14    1
    13    14    15    1
    14     2     3   ar
    15     3     4   ar
    16     4     5   ar
    17     5     6   ar
    18     6     7   ar
    19     7     8   ar
    20     8     9   ar
    21    22    23   ar
    22    23    24   ar
    23    24    25    1
    24    24    19   ar
    25     9     1   ar
    26    15    10    1
    27     9     4   ar
    28    12    16    1
@<TRIPOS>MOLECULE
*****
 25 28 0 0 0
SMALL
GASTEIGER

@<TRIPOS>ATOM
      1 N          63.1932   83.9302   13.0498 N.ar    1  UNL1       -0.3087
      2 C          62.8870   83.9748   14.5176 C.ar    1  UNL1        0.1493
      3 N          62.5223   82.5879   14.9573 N.ar    1  UNL1       -0.2284
      4 C          62.6031   81.6861   13.7613 C.ar    1  UNL1        0.0984
      5 C          62.3526   80.2167   13.5935 C.ar    1  UNL1        0.0206
      6 C          62.5168   79.5770   12.2467 C.ar    1  UNL1        0.0016
      7 C          62.9314   80.4066   11.0679 C.ar    1  UNL1        0.0016
      8 C          63.1819   81.8760   11.2357 C.ar    1  UNL1        0.0188
      9 C          63.0177   82.5157   12.5824 C.ar    1  UNL1        0.0789
     10 C          62.9368   85.1925   15.3920 C.3     1  UNL1        0.1869
     11 C          63.7882   86.3634   14.9996 C.3     1  UNL1        0.1064
     12 N          63.8380   87.5811   15.8740 N.3     1  UNL1       -0.2930
     13 C          63.0364   87.6280   17.1410 C.3     1  UNL1        0.1011
     14 C          62.1850   86.4571   17.5334 C.3     1  UNL1        0.1597
     15 O          62.1352   85.2394   16.6590 O.3     1  UNL1       -0.3458
     16 H          63.5304   88.3674   15.3017 H       1  UNL1        0.1234
     17 C          63.6029   85.0955   12.1988 C.3     1  UNL1        0.1339
     18 C          59.8676   87.2088    8.0058 C.3     1  UNL1        0.0307
     19 C          60.8014   86.6805    9.0541 C.ar    1  UNL1       -0.0258
     20 C          61.8195   85.6388    8.6954 C.ar    1  UNL1       -0.0048
     21 C          62.7532   85.1105    9.7437 C.ar    1  UNL1       -0.0027
     22 C          62.6691   85.6238   11.1506 C.ar    1  UNL1        0.0001
     23 C          61.6511   86.6655   11.5092 C.ar    1  UNL1       -0.0070
     24 C          60.7173   87.1938   10.4610 C.ar    1  UNL1       -0.0260
     25 C          59.6993   88.2355   10.8196 C.3     1  UNL1        0.0307
@<TRIPOS>BOND
     1    18    19    1
     2    19    20   ar
     3    20    21   ar
     4    21    22   ar
     5    22    17    1
     6    17     1    1
     7     1     2   ar
     8     2    10    1
     9    10    11    1
    10    11    12    1
    11    12    13    1
    12    13    14    1
    13    14    15    1
    14     2     3   ar
    15     3     4   ar
    16     4     5   ar
    17     5     6   ar
    18     6     7   ar
    19     7     8   ar
    20     8     9   ar
    21    22    23   ar
    22    23    24   ar
    23    24    25    1
    24    24    19   ar
    25     9     1   ar
    26    15    10    1
    27     9     4   ar
    28    12    16    1
@<TRIPOS>MOLECULE
*****
 25 28 0 0 0
SMALL
GASTEIGER

@<TRIPOS>ATOM
      1 N          64.6681   91.2879   14.4007 N.ar    1  UNL1       -0.3087
      2 C          64.5802   91.4703   12.9144 C.ar    1  UNL1        0.1493
      3 N          65.8193   92.1836   12.4610 N.ar    1  UNL1       -0.2284
      4 C          66.6731   92.4421   13.6669 C.ar    1  UNL1        0.0984
      5 C          68.0064   93.1100   13.8283 C.ar    1  UNL1        0.0206
      6 C          68.6282   93.2243   15.1885 C.ar    1  UNL1        0.0016
      7 C          67.9167   92.6708   16.3874 C.ar    1  UNL1        0.0016
      8 C          66.5833   92.0029   16.2260 C.ar    1  UNL1        0.0188
      9 C          65.9615   91.8885   14.8658 C.ar    1  UNL1        0.0789
     10 C          63.4514   91.0187   12.0359 C.3     1  UNL1        0.1869
     11 C          63.4626   91.3467   10.5723 C.3     1  UNL1        0.1064
     12 N          62.3337   90.8951    9.6938 N.3     1  UNL1       -0.2930
     13 C          61.1937   90.1154   10.2789 C.3     1  UNL1        0.1011
     14 C          61.1825   89.7873   11.7425 C.3     1  UNL1        0.1597
     15 O          62.3114   90.2390   12.6210 O.3     1  UNL1       -0.3458
     16 H          62.7439   90.3136    8.9631 H       1  UNL1        0.1234
     17 C          63.6426   90.6219   15.2694 C.3     1  UNL1        0.1339
     18 C          63.8408   84.6879   16.1343 C.3     1  UNL1        0.0307
     19 C          63.7913   86.1714   15.9181 C.ar    1  UNL1       -0.0258
     20 C          64.3861   86.7688   14.6773 C.ar    1  UNL1       -0.0048
     21 C          64.3365   88.2523   14.4612 C.ar    1  UNL1       -0.0027
     22 C          63.6921   89.1385   15.4857 C.ar    1  UNL1        0.0001
     23 C          63.0973   88.5410   16.7264 C.ar    1  UNL1       -0.0070
     24 C          63.1469   87.0575   16.9425 C.ar    1  UNL1       -0.0260
     25 C          62.5521   86.4601   18.1832 C.3     1  UNL1        0.0307
@<TRIPOS>BOND
     1    18    19    1
     2    19    20   ar
     3    20    21   ar
     4    21    22   ar
     5    22    17    1
     6    17     1    1
     7     1     2   ar
     8     2    10    1
     9    10    11    1
    10    11    12    1
    11    12    13    1
    12    13    14    1
    13    14    15    1
    14     2     3   ar
    15     3     4   ar
    16     4     5   ar
    17     5     6   ar
    18     6     7   ar
    19     7     8   ar
    20     8     9   ar
    21    22    23   ar
    22    23    24   ar
    23    24    25    1
    24    24    19   ar
    25     9     1   ar
    26    15    10    1
    27     9     4   ar
    28    12    16    1
@<TRIPOS>MOLECULE
*****
 25 28 0 0 0
SMALL
GASTEIGER

@<TRIPOS>ATOM
      1 N          62.3130   87.8709   11.9025 N.ar    1  UNL1       -0.3087
      2 C          61.8013   87.0194   10.7786 C.ar    1  UNL1        0.1493
      3 N          62.3178   85.6257   10.9809 N.ar    1  UNL1       -0.2284
      4 C          63.1487   85.6159   12.2297 C.ar    1  UNL1        0.0984
      5 C          63.9076   84.5227   12.9218 C.ar    1  UNL1        0.0206
      6 C          64.6635   84.8172   14.1834 C.ar    1  UNL1        0.0016
      7 C          64.6605   86.2048   14.7530 C.ar    1  UNL1        0.0016
      8 C          63.9016   87.2980   14.0609 C.ar    1  UNL1        0.0188
      9 C          63.1457   87.0035   12.7993 C.ar    1  UNL1        0.0789
     10 C          60.9266   87.4805    9.6506 C.3     1  UNL1        0.1869
     11 C          60.8926   88.9317    9.2730 C.3     1  UNL1        0.1064
     12 N          60.0180   89.3929    8.1450 N.3     1  UNL1       -0.2930
     13 C          59.1774   88.4028    7.3946 C.3     1  UNL1        0.1011
     14 C          59.2114   86.9516    7.7723 C.3     1  UNL1        0.1597
     15 O          60.0860   86.4904    8.9003 O.3     1  UNL1       -0.3458
     16 H          60.6299   89.8379    7.4609 H       1  UNL1        0.1234
     17 C          62.0399   89.3331   12.0956 C.3     1  UNL1        0.1339
     18 C          66.5341   93.2943   11.7618 C.3     1  UNL1        0.0307
     19 C          65.4105   92.3040   11.8453 C.ar    1  UNL1       -0.0258
     20 C          64.5490   92.0443   10.6451 C.ar    1  UNL1       -0.0048
     21 C          63.4255   91.0540   10.7286 C.ar    1  UNL1       -0.0027
     22 C          63.1634   90.3234   12.0122 C.ar    1  UNL1        0.0001
     23 C          64.0250   90.5831   13.2123 C.ar    1  UNL1       -0.0070
     24 C          65.1485   91.5734   13.1288 C.ar    1  UNL1       -0.0260
     25 C          66.0101   91.8331   14.3289 C.3     1  UNL1        0.0307
@<TRIPOS>BOND
     1    18    19    1
     2    19    20   ar
     3    20    21   ar
     4    21    22   ar
     5    22    17    1
     6    17     1    1
     7     1     2   ar
     8     2    10    1
     9    10    11    1
    10    11    12    1
    11    12    13    1
    12    13    14    1
    13    14    15    1
    14     2     3   ar
    15     3     4   ar
    16     4     5   ar
    17     5     6   ar
    18     6     7   ar
    19     7     8   ar
    20     8     9   ar
    21    22    23   ar
    22    23    24   ar
    23    24    25    1
    24    24    19   ar
    25     9     1   ar
    26    15    10    1
    27     9     4   ar
    28    12    16    1
@<TRIPOS>MOLECULE
*****
 25 28 0 0 0
SMALL
GASTEIGER

@<TRIPOS>ATOM
      1 N          62.7591   87.5836   11.9462 N.ar    1  UNL1       -0.3087
      2 C          62.5199   89.0236   12.2915 C.ar    1  UNL1        0.1493
      3 N          61.5385   89.5803   11.3030 N.ar    1  UNL1       -0.2284
      4 C          61.1713   88.4844   10.3469 C.ar    1  UNL1        0.0984
      5 C          60.2474   88.4507    9.1657 C.ar    1  UNL1        0.0206
      6 C          60.0780   87.1830    8.3821 C.ar    1  UNL1        0.0016
      7 C          60.8324   85.9490    8.7796 C.ar    1  UNL1        0.0016
      8 C          61.7562   85.9826    9.9608 C.ar    1  UNL1        0.0188
      9 C          61.9257   87.2503   10.7445 C.ar    1  UNL1        0.0789
     10 C          63.1511   89.7749   13.4259 C.3     1  UNL1        0.1869
     11 C          64.0598   90.9346   13.1440 C.3     1  UNL1        0.1064
     12 N          64.6910   91.6859   14.2784 N.3     1  UNL1       -0.2930
     13 C          64.4136   91.2777   15.6949 C.3     1  UNL1        0.1011
     14 C          63.5049   90.1180   15.9768 C.3     1  UNL1        0.1597
     15 O          62.8737   89.3667   14.8424 O.3     1  UNL1       -0.3458
     16 H          64.3949   92.6579   14.1888 H       1  UNL1        0.1234
     17 C          63.6717   86.6421   12.6749 C.3     1  UNL1        0.1339
     18 C          61.9496   80.9870   13.7011 C.3     1  UNL1        0.0307
     19 C          62.3801   82.4008   13.4445 C.ar    1  UNL1       -0.0258
     20 C          62.2182   83.4399   14.5142 C.ar    1  UNL1       -0.0048
     21 C          62.6487   84.8537   14.2576 C.ar    1  UNL1       -0.0027
     22 C          63.2412   85.2284   12.9314 C.ar    1  UNL1        0.0001
     23 C          63.4031   84.1892   11.8619 C.ar    1  UNL1       -0.0070
     24 C          62.9726   82.7754   12.1185 C.ar    1  UNL1       -0.0260
     25 C          63.1345   81.7363   11.0489 C.3     1  UNL1        0.0307
@<TRIPOS>BOND
     1    18    19    1
     2    19    20   ar
     3    20    21   ar
     4    21    22   ar
     5    22    17    1
     6    17     1    1
     7     1     2   ar
     8     2    10    1
     9    10    11    1
    10    11    12    1
    11    12    13    1
    12    13    14    1
    13    14    15    1
    14     2     3   ar
    15     3     4   ar
    16     4     5   ar
    17     5     6   ar
    18     6     7   ar
    19     7     8   ar
    20     8     9   ar
    21    22    23   ar
    22    23    24   ar
    23    24    25    1
    24    24    19   ar
    25     9     1   ar
    26    15    10    1
    27     9     4   ar
    28    12    16    1
@<TRIPOS>MOLECULE
*****
 25 28 0 0 0
SMALL
GASTEIGER

@<TRIPOS>ATOM
      1 N          63.2249   84.4895   13.1031 N.ar    1  UNL1       -0.3087
      2 C          62.9582   84.4345   14.5782 C.ar    1  UNL1        0.1493
      3 N          62.6767   83.0077   14.9454 N.ar    1  UNL1       -0.2284
      4 C          62.7693   82.1808   13.6973 C.ar    1  UNL1        0.0984
      5 C          62.5890   80.7123   13.4505 C.ar    1  UNL1        0.0206
      6 C          62.7474   80.1597   12.0651 C.ar    1  UNL1        0.0016
      7 C          63.0863   81.0755   10.9265 C.ar    1  UNL1        0.0016
      8 C          63.2667   82.5440   11.1733 C.ar    1  UNL1        0.0188
      9 C          63.1082   83.0966   12.5587 C.ar    1  UNL1        0.0789
     10 C          62.9709   85.6015   15.5206 C.3     1  UNL1        0.1869
     11 C          62.2931   85.4956   16.8545 C.3     1  UNL1        0.1064
     12 N          62.3058   86.6626   17.7969 N.3     1  UNL1       -0.2930
     13 C          62.9961   87.9354   17.4053 C.3     1  UNL1        0.1011
     14 C          63.6738   88.0412   16.0714 C.3     1  UNL1        0.1597
     15 O          63.6612   86.8742   15.1290 O.3     1  UNL1       -0.3458
     16 H          62.7477   86.3408   18.6581 H       1  UNL1        0.1234
     17 C          63.5511   85.7211   12.3114 C.3     1  UNL1        0.1339
     18 C          59.5673   87.9142    8.3974 C.3     1  UNL1        0.0307
     19 C          60.5632   87.3659    9.3760 C.ar    1  UNL1       -0.0258
     20 C          60.9917   85.9312    9.2857 C.ar    1  UNL1       -0.0048
     21 C          61.9876   85.3830   10.2642 C.ar    1  UNL1       -0.0027
     22 C          62.5552   86.2693   11.3330 C.ar    1  UNL1        0.0001
     23 C          62.1267   87.7040   11.4232 C.ar    1  UNL1       -0.0070
     24 C          61.1307   88.2523   10.4447 C.ar    1  UNL1       -0.0260
     25 C          60.7022   89.6869   10.5349 C.3     1  UNL1        0.0307
@<TRIPOS>BOND
     1    18    19    1
     2    19    20   ar
     3    20    21   ar
     4    21    22   ar
     5    22    17    1
     6    17     1    1
     7     1     2   ar
     8     2    10    1
     9    10    11    1
    10    11    12    1
    11    12    13    1
    12    13    14    1
    13    14    15    1
    14     2     3   ar
    15     3     4   ar
    16     4     5   ar
    17     5     6   ar
    18     6     7   ar
    19     7     8   ar
    20     8     9   ar
    21    22    23   ar
    22    23    24   ar
    23    24    25    1
    24    24    19   ar
    25     9     1   ar
    26    15    10    1
    27     9     4   ar
    28    12    16    1
