@<TRIPOS>MOLECULE
*****
 32 34 0 0 0
SMALL
GASTEIGER

@<TRIPOS>ATOM
      1 C          65.1336   91.6121   13.5862 C.ar    1  UNL1        0.2031
      2 N          64.0390   91.2314   12.6338 N.ar    1  UNL1       -0.1927
      3 C          64.1568   91.5772   11.1790 C.ar    1  UNL1        0.2187
      4 N          65.3692   92.3037   10.6765 N.ar    1  UNL1       -0.2057
      5 C          66.4637   92.6844   11.6289 C.ar    1  UNL1        0.1799
      6 C          66.3459   92.3386   13.0837 C.ar    1  UNL1        0.3398
      7 N          67.4405   92.7192   14.0361 N.pl3   1  UNL1        0.0855
      8 O          68.8580   92.3233   13.7465 O.2     1  UNL1        0.0416
      9 O          67.1175   93.4959   15.2781 O.co2   1  UNL1       -0.5759
     10 N          65.0159   91.2663   15.0410 N.pl3   1  UNL1       -0.3131
     11 H          65.7496   91.4851   15.6600 H       1  UNL1        0.1484
     12 C          63.7803   90.5871   15.5529 C.3     1  UNL1        0.0883
     13 C          63.6664   86.1038   15.9226 C.3     1  UNL1        0.0155
     14 C          64.3400   86.7423   14.7443 C.3     1  UNL1        0.0014
     15 C          64.3780   88.2367   14.6210 C.3     1  UNL1        0.0017
     16 C          63.7423   89.0927   15.6761 C.3     1  UNL1        0.0196
     17 C          63.0688   88.4542   16.8545 C.3     1  UNL1        0.0017
     18 C          63.0308   86.9597   16.9777 C.3     1  UNL1        0.0014
     19 N          64.5733   83.7662   15.2419 N.3     1  UNL1       -0.3211
     20 C          63.6285   84.6093   16.0459 C.3     1  UNL1        0.0651
     21 H          64.4096   82.7809   15.4485 H       1  UNL1        0.1189
     22 H          65.5343   84.0090   15.4824 H       1  UNL1        0.1189
     23 N          63.0623   91.1966   10.2266 N.pl3   1  UNL1       -0.2990
     24 H          63.1398   91.4232    9.2717 H       1  UNL1        0.1500
     25 C          61.8496   90.4706   10.7292 C.3     1  UNL1        0.1173
     26 C          61.7503   88.9817   10.5773 C.ar    1  UNL1        0.0080
     27 C          62.5199   88.0810   11.4974 C.ar    1  UNL1       -0.0018
     28 C          62.4206   86.5920   11.3456 C.ar    1  UNL1       -0.0002
     29 C          61.5517   86.0037   10.2737 C.ar    1  UNL1        0.0008
     30 C          60.7820   86.9044    9.3536 C.ar    1  UNL1        0.0111
     31 C          60.8814   88.3934    9.5055 C.ar    1  UNL1        0.0553
     32 CL         60.1118   89.2940    8.5854 Cl      1  UNL1       -0.0825
@<TRIPOS>UNITY_ATOM_ATTR
7 1
charge 1
9 1
charge -1
@<TRIPOS>BOND
     1    19    20    1
     2    20    13    1
     3    13    14    1
     4    14    15    1
     5    15    16    1
     6    16    12    1
     7    12    10    1
     8    10     1    1
     9     1     2   ar
    10     2     3   ar
    11     3    23    1
    12    23    25    1
    13    25    26    1
    14    26    27   ar
    15    27    28   ar
    16    28    29   ar
    17    29    30   ar
    18    30    31   ar
    19    31    32    1
    20     3     4   ar
    21     4     5   ar
    22     5     6   ar
    23     6     7    1
    24     7     8    2
    25     7     9    1
    26    16    17    1
    27    17    18    1
    28    18    13    1
    29     6     1   ar
    30    31    26   ar
    31    19    21    1
    32    19    22    1
    33    10    11    1
    34    23    24    1
@<TRIPOS>MOLECULE
*****
 32 34 0 0 0
SMALL
GASTEIGER

@<TRIPOS>ATOM
      1 C          61.0231   87.7216   10.1303 C.ar    1  UNL1        0.2031
      2 N          61.7409   88.1497   11.3760 N.ar    1  UNL1       -0.1927
      3 C          61.5994   89.5564   11.8771 C.ar    1  UNL1        0.2187
      4 N          60.7401   90.5350   11.1327 N.ar    1  UNL1       -0.2057
      5 C          60.0224   90.1068    9.8871 C.ar    1  UNL1        0.1799
      6 C          60.1639   88.7001    9.3859 C.ar    1  UNL1        0.3398
      7 N          59.4462   88.2720    8.1403 N.pl3   1  UNL1        0.0855
      8 O          59.4819   89.1406    6.9180 O.2     1  UNL1        0.0416
      9 O          58.6927   86.9751    8.1171 O.co2   1  UNL1       -0.5759
     10 N          61.1646   86.3149    9.6291 N.pl3   1  UNL1       -0.3131
     11 H          60.3659   85.8042    9.3637 H       1  UNL1        0.1484
     12 C          62.5231   85.6863    9.5323 C.3     1  UNL1        0.0883
     13 C          63.7058   82.4307   12.4050 C.3     1  UNL1        0.0155
     14 C          64.2066   82.4020   10.9914 C.3     1  UNL1        0.0014
     15 C          63.8124   83.4872   10.0338 C.3     1  UNL1        0.0017
     16 C          62.9173   84.6011   10.4899 C.3     1  UNL1        0.0196
     17 C          62.4165   84.6298   11.9035 C.3     1  UNL1        0.0017
     18 C          62.8107   83.5446   12.8610 C.3     1  UNL1        0.0014
     19 N          63.0521   80.6476   14.1779 N.3     1  UNL1       -0.3211
     20 C          64.1000   81.3455   13.3625 C.3     1  UNL1        0.0651
     21 H          63.4944   79.9444   14.7698 H       1  UNL1        0.1189
     22 H          62.3822   80.1957   13.5556 H       1  UNL1        0.1189
     23 N          62.3171   89.9846   13.1227 N.pl3   1  UNL1       -0.2990
     24 H          61.8130   90.3809   13.8697 H       1  UNL1        0.1500
     25 C          63.8029   89.8089   13.2302 C.3     1  UNL1        0.1173
     26 C          64.6804   90.9941   13.5043 C.ar    1  UNL1        0.0080
     27 C          65.2386   91.2119   14.8794 C.ar    1  UNL1       -0.0018
     28 C          66.1162   92.3972   15.1536 C.ar    1  UNL1       -0.0002
     29 C          66.4355   93.3646   14.0526 C.ar    1  UNL1        0.0008
     30 C          65.8772   93.1467   12.6775 C.ar    1  UNL1        0.0111
     31 C          64.9997   91.9615   12.4033 C.ar    1  UNL1        0.0553
     32 CL         64.4416   91.7437   11.0282 Cl      1  UNL1       -0.0825
@<TRIPOS>UNITY_ATOM_ATTR
7 1
charge 1
9 1
charge -1
@<TRIPOS>BOND
     1    19    20    1
     2    20    13    1
     3    13    14    1
     4    14    15    1
     5    15    16    1
     6    16    12    1
     7    12    10    1
     8    10     1    1
     9     1     2   ar
    10     2     3   ar
    11     3    23    1
    12    23    25    1
    13    25    26    1
    14    26    27   ar
    15    27    28   ar
    16    28    29   ar
    17    29    30   ar
    18    30    31   ar
    19    31    32    1
    20     3     4   ar
    21     4     5   ar
    22     5     6   ar
    23     6     7    1
    24     7     8    2
    25     7     9    1
    26    16    17    1
    27    17    18    1
    28    18    13    1
    29     6     1   ar
    30    31    26   ar
    31    19    21    1
    32    19    22    1
    33    10    11    1
    34    23    24    1
@<TRIPOS>MOLECULE
*****
 32 34 0 0 0
SMALL
GASTEIGER

@<TRIPOS>ATOM
      1 C          63.9977   83.9618   13.6987 C.ar    1  UNL1        0.2031
      2 N          64.2101   85.4029   14.0568 N.ar    1  UNL1       -0.1927
      3 C          63.4479   86.0130   15.1955 C.ar    1  UNL1        0.2187
      4 N          62.4732   85.1820   15.9763 N.ar    1  UNL1       -0.2057
      5 C          62.2608   83.7410   15.6182 C.ar    1  UNL1        0.1799
      6 C          63.0231   83.1309   14.4795 C.ar    1  UNL1        0.3398
      7 N          62.8106   81.6898   14.1214 N.pl3   1  UNL1        0.0855
      8 O          61.4245   81.1771   13.8652 O.2     1  UNL1        0.0416
      9 O          63.9845   80.7614   14.0195 O.co2   1  UNL1       -0.5759
     10 N          64.7599   83.3517   12.5600 N.pl3   1  UNL1       -0.3131
     11 H          65.7155   83.1394   12.6650 H       1  UNL1        0.1484
     12 C          64.0663   83.0651   11.2613 C.3     1  UNL1        0.0883
     13 C          61.6147   86.2675    9.2652 C.3     1  UNL1        0.0155
     14 C          61.3703   85.9238   10.7047 C.3     1  UNL1        0.0014
     15 C          62.1875   84.8563   11.3700 C.3     1  UNL1        0.0017
     16 C          63.2491   84.1325   10.5959 C.3     1  UNL1        0.0196
     17 C          63.4934   84.4762    9.1565 C.3     1  UNL1        0.0017
     18 C          62.6762   85.5437    8.4911 C.3     1  UNL1        0.0014
     19 N          59.3645   87.0703    8.2444 N.3     1  UNL1       -0.3211
     20 C          60.7975   87.3349    8.5998 C.3     1  UNL1        0.0651
     21 H          58.9651   87.8985    7.8029 H       1  UNL1        0.1189
     22 H          58.8395   86.8496    9.0907 H       1  UNL1        0.1189
     23 N          63.6603   87.4541   15.5536 N.pl3   1  UNL1       -0.2990
     24 H          63.1800   87.8474   16.3177 H       1  UNL1        0.1500
     25 C          64.6046   88.2959   14.7475 C.3     1  UNL1        0.1173
     26 C          64.0841   89.1350   13.6184 C.ar    1  UNL1        0.0080
     27 C          63.2684   88.5039   12.5292 C.ar    1  UNL1       -0.0018
     28 C          62.7478   89.3430   11.4000 C.ar    1  UNL1       -0.0002
     29 C          63.0430   90.8132   11.3601 C.ar    1  UNL1        0.0008
     30 C          63.8587   91.4442   12.4493 C.ar    1  UNL1        0.0111
     31 C          64.3793   90.6051   13.5784 C.ar    1  UNL1        0.0553
     32 CL         65.1950   91.2361   14.6676 Cl      1  UNL1       -0.0825
@<TRIPOS>UNITY_ATOM_ATTR
7 1
charge 1
9 1
charge -1
@<TRIPOS>BOND
     1    19    20    1
     2    20    13    1
     3    13    14    1
     4    14    15    1
     5    15    16    1
     6    16    12    1
     7    12    10    1
     8    10     1    1
     9     1     2   ar
    10     2     3   ar
    11     3    23    1
    12    23    25    1
    13    25    26    1
    14    26    27   ar
    15    27    28   ar
    16    28    29   ar
    17    29    30   ar
    18    30    31   ar
    19    31    32    1
    20     3     4   ar
    21     4     5   ar
    22     5     6   ar
    23     6     7    1
    24     7     8    2
    25     7     9    1
    26    16    17    1
    27    17    18    1
    28    18    13    1
    29     6     1   ar
    30    31    26   ar
    31    19    21    1
    32    19    22    1
    33    10    11    1
    34    23    24    1
@<TRIPOS>MOLECULE
*****
 32 34 0 0 0
SMALL
GASTEIGER

@<TRIPOS>ATOM
      1 C          63.2271   89.6161   13.2351 C.ar    1  UNL1        0.2031
      2 N          62.2031   89.0830   12.2774 N.ar    1  UNL1       -0.1927
      3 C          61.9724   89.7726   10.9655 C.ar    1  UNL1        0.2187
      4 N          62.7658   90.9955   10.6113 N.ar    1  UNL1       -0.2057
      5 C          63.7898   91.5285   11.5690 C.ar    1  UNL1        0.1799
      6 C          64.0204   90.8389   12.8809 C.ar    1  UNL1        0.3398
      7 N          65.0444   91.3719   13.8387 N.pl3   1  UNL1        0.0855
      8 O          66.4422   91.6441   13.3674 O.2     1  UNL1        0.0416
      9 O          64.6706   91.6329   15.2678 O.co2   1  UNL1       -0.5759
     10 N          63.4578   88.9264   14.5471 N.pl3   1  UNL1       -0.3131
     11 H          62.9577   89.2093   15.3465 H       1  UNL1        0.1484
     12 C          64.4504   87.8058   14.6409 C.3     1  UNL1        0.0883
     13 C          63.1425   83.5706   13.8646 C.3     1  UNL1        0.0155
     14 C          63.0924   84.5853   12.7611 C.3     1  UNL1        0.0014
     15 C          63.5284   85.9970   13.0198 C.3     1  UNL1        0.0017
     16 C          64.0144   86.3941   14.3822 C.3     1  UNL1        0.0196
     17 C          64.0645   85.3794   15.4857 C.3     1  UNL1        0.0017
     18 C          63.6286   83.9677   15.2270 C.3     1  UNL1        0.0014
     19 N          62.0494   81.3652   14.6958 N.3     1  UNL1       -0.3211
     20 C          62.7065   82.1589   13.6059 C.3     1  UNL1        0.0651
     21 H          61.8209   80.4340   14.3479 H       1  UNL1        0.1189
     22 H          61.1947   81.8367   14.9918 H       1  UNL1        0.1189
     23 N          60.9485   89.2396   10.0078 N.pl3   1  UNL1       -0.2990
     24 H          60.5478   89.8349    9.3338 H       1  UNL1        0.1500
     25 C          60.5349   87.7993   10.0769 C.3     1  UNL1        0.1173
     26 C          61.1219   86.8037    9.1208 C.ar    1  UNL1        0.0080
     27 C          62.5232   86.3076    9.3213 C.ar    1  UNL1       -0.0018
     28 C          63.1104   85.3120    8.3652 C.ar    1  UNL1       -0.0002
     29 C          62.2961   84.8124    7.2087 C.ar    1  UNL1        0.0008
     30 C          60.8948   85.3086    7.0083 C.ar    1  UNL1        0.0111
     31 C          60.3077   86.3042    7.9644 C.ar    1  UNL1        0.0553
     32 CL         58.9064   86.8003    7.7639 Cl      1  UNL1       -0.0825
@<TRIPOS>UNITY_ATOM_ATTR
7 1
charge 1
9 1
charge -1
@<TRIPOS>BOND
     1    19    20    1
     2    20    13    1
     3    13    14    1
     4    14    15    1
     5    15    16    1
     6    16    12    1
     7    12    10    1
     8    10     1    1
     9     1     2   ar
    10     2     3   ar
    11     3    23    1
    12    23    25    1
    13    25    26    1
    14    26    27   ar
    15    27    28   ar
    16    28    29   ar
    17    29    30   ar
    18    30    31   ar
    19    31    32    1
    20     3     4   ar
    21     4     5   ar
    22     5     6   ar
    23     6     7    1
    24     7     8    2
    25     7     9    1
    26    16    17    1
    27    17    18    1
    28    18    13    1
    29     6     1   ar
    30    31    26   ar
    31    19    21    1
    32    19    22    1
    33    10    11    1
    34    23    24    1
@<TRIPOS>MOLECULE
*****
 32 34 0 0 0
SMALL
GASTEIGER

@<TRIPOS>ATOM
      1 C          63.7980   88.6444   13.9201 C.ar    1  UNL1        0.2031
      2 N          63.7630   87.1452   13.8838 N.ar    1  UNL1       -0.1927
      3 C          63.6174   86.3673   15.1580 C.ar    1  UNL1        0.2187
      4 N          63.5068   87.0887   16.4686 N.ar    1  UNL1       -0.2057
      5 C          63.5418   88.5878   16.5049 C.ar    1  UNL1        0.1799
      6 C          63.6874   89.3657   15.2306 C.ar    1  UNL1        0.3398
      7 N          63.7224   90.8648   15.2669 N.pl3   1  UNL1        0.0855
      8 O          64.1765   91.6338   14.0617 O.2     1  UNL1        0.0416
      9 O          63.3032   91.5950   16.5084 O.co2   1  UNL1       -0.5759
     10 N          63.9436   89.4223   12.6459 N.pl3   1  UNL1       -0.3131
     11 H          64.8398   89.6216   12.2905 H       1  UNL1        0.1484
     12 C          62.7237   89.8965   11.9131 C.3     1  UNL1        0.0883
     13 C          60.6780   87.1871    8.9594 C.3     1  UNL1        0.0155
     14 C          60.3888   88.6589    8.9523 C.3     1  UNL1        0.0014
     15 C          61.0707   89.5621    9.9369 C.3     1  UNL1        0.0017
     16 C          62.0418   88.9934   10.9285 C.3     1  UNL1        0.0196
     17 C          62.3310   87.5216   10.9357 C.3     1  UNL1        0.0017
     18 C          61.6491   86.6184    9.9511 C.3     1  UNL1        0.0014
     19 N          58.5722   86.5433    7.5806 N.3     1  UNL1       -0.3211
     20 C          59.9960   86.2840    7.9749 C.3     1  UNL1        0.0651
     21 H          58.2717   85.8375    6.9083 H       1  UNL1        0.1189
     22 H          58.4997   87.4685    7.1575 H       1  UNL1        0.1189
     23 N          63.5825   84.8682   15.1218 N.pl3   1  UNL1       -0.2990
     24 H          64.2610   84.3481   15.6098 H       1  UNL1        0.1500
     25 C          62.5136   84.1616   14.3418 C.3     1  UNL1        0.1173
     26 C          62.8689   83.4099   13.0934 C.ar    1  UNL1        0.0080
     27 C          63.6166   84.0987   11.9904 C.ar    1  UNL1       -0.0018
     28 C          63.9720   83.3471   10.7419 C.ar    1  UNL1       -0.0002
     29 C          63.5797   81.9066   10.5964 C.ar    1  UNL1        0.0008
     30 C          62.8320   81.2178   11.6994 C.ar    1  UNL1        0.0111
     31 C          62.4766   81.9695   12.9478 C.ar    1  UNL1        0.0553
     32 CL         61.7289   81.2807   14.0507 Cl      1  UNL1       -0.0825
@<TRIPOS>UNITY_ATOM_ATTR
7 1
charge 1
9 1
charge -1
@<TRIPOS>BOND
     1    19    20    1
     2    20    13    1
     3    13    14    1
     4    14    15    1
     5    15    16    1
     6    16    12    1
     7    12    10    1
     8    10     1    1
     9     1     2   ar
    10     2     3   ar
    11     3    23    1
    12    23    25    1
    13    25    26    1
    14    26    27   ar
    15    27    28   ar
    16    28    29   ar
    17    29    30   ar
    18    30    31   ar
    19    31    32    1
    20     3     4   ar
    21     4     5   ar
    22     5     6   ar
    23     6     7    1
    24     7     8    2
    25     7     9    1
    26    16    17    1
    27    17    18    1
    28    18    13    1
    29     6     1   ar
    30    31    26   ar
    31    19    21    1
    32    19    22    1
    33    10    11    1
    34    23    24    1
@<TRIPOS>MOLECULE
*****
 32 34 0 0 0
SMALL
GASTEIGER

@<TRIPOS>ATOM
      1 C          63.7991   90.6176   14.0805 C.ar    1  UNL1        0.2031
      2 N          64.7159   91.6340   13.4669 N.ar    1  UNL1       -0.1927
      3 C          65.5155   92.5499   14.3454 C.ar    1  UNL1        0.2187
      4 N          65.3983   92.4494   15.8374 N.ar    1  UNL1       -0.2057
      5 C          64.4815   91.4330   16.4510 C.ar    1  UNL1        0.1799
      6 C          63.6819   90.5172   15.5725 C.ar    1  UNL1        0.3398
      7 N          62.7651   89.5008   16.1860 N.pl3   1  UNL1        0.0855
      8 O          63.2824   88.5591   17.2327 O.2     1  UNL1        0.0416
      9 O          61.3309   89.4261   15.7528 O.co2   1  UNL1       -0.5759
     10 N          62.9994   89.7017   13.2020 N.pl3   1  UNL1       -0.3131
     11 H          62.4043   89.0288   13.6048 H       1  UNL1        0.1484
     12 C          63.1065   89.8111   11.7099 C.3     1  UNL1        0.0883
     13 C          60.5828   87.1781    9.0739 C.3     1  UNL1        0.0155
     14 C          61.4914   86.5644   10.0975 C.3     1  UNL1        0.0014
     15 C          62.3326   87.4420   10.9761 C.3     1  UNL1        0.0017
     16 C          62.2653   88.9335   10.8312 C.3     1  UNL1        0.0196
     17 C          61.3567   89.5472    9.8076 C.3     1  UNL1        0.0017
     18 C          60.5155   88.6695    8.9289 C.3     1  UNL1        0.0014
     19 N          58.3691   86.7450    7.7848 N.3     1  UNL1       -0.3211
     20 C          59.7416   86.3004    8.1952 C.3     1  UNL1        0.0651
     21 H          57.9433   86.0315    7.1932 H       1  UNL1        0.1189
     22 H          58.4363   87.6209    7.2663 H       1  UNL1        0.1189
     23 N          66.4324   93.5662   13.7318 N.pl3   1  UNL1       -0.2990
     24 H          67.2550   93.8342   14.2016 H       1  UNL1        0.1500
     25 C          66.0958   94.1743   12.4025 C.3     1  UNL1        0.1173
     26 C          66.8564   93.7647   11.1763 C.ar    1  UNL1        0.0080
     27 C          67.3515   92.3557   11.0367 C.ar    1  UNL1       -0.0018
     28 C          68.1121   91.9460    9.8104 C.ar    1  UNL1       -0.0002
     29 C          68.3775   92.9454    8.7237 C.ar    1  UNL1        0.0008
     30 C          67.8823   94.3544    8.8634 C.ar    1  UNL1        0.0111
     31 C          67.1218   94.7641   10.0896 C.ar    1  UNL1        0.0553
     32 CL         66.6266   96.1730   10.2292 Cl      1  UNL1       -0.0825
@<TRIPOS>UNITY_ATOM_ATTR
7 1
charge 1
9 1
charge -1
@<TRIPOS>BOND
     1    19    20    1
     2    20    13    1
     3    13    14    1
     4    14    15    1
     5    15    16    1
     6    16    12    1
     7    12    10    1
     8    10     1    1
     9     1     2   ar
    10     2     3   ar
    11     3    23    1
    12    23    25    1
    13    25    26    1
    14    26    27   ar
    15    27    28   ar
    16    28    29   ar
    17    29    30   ar
    18    30    31   ar
    19    31    32    1
    20     3     4   ar
    21     4     5   ar
    22     5     6   ar
    23     6     7    1
    24     7     8    2
    25     7     9    1
    26    16    17    1
    27    17    18    1
    28    18    13    1
    29     6     1   ar
    30    31    26   ar
    31    19    21    1
    32    19    22    1
    33    10    11    1
    34    23    24    1
@<TRIPOS>MOLECULE
*****
 32 34 0 0 0
SMALL
GASTEIGER

@<TRIPOS>ATOM
      1 C          61.2631   87.7577   10.0727 C.ar    1  UNL1        0.2031
      2 N          62.0516   88.1445   11.2887 N.ar    1  UNL1       -0.1927
      3 C          61.9048   89.5186   11.8720 C.ar    1  UNL1        0.2187
      4 N          60.9695   90.5060   11.2392 N.ar    1  UNL1       -0.2057
      5 C          60.1811   90.1192   10.0232 C.ar    1  UNL1        0.1799
      6 C          60.3279   88.7450    9.4399 C.ar    1  UNL1        0.3398
      7 N          59.5395   88.3582    8.2239 N.pl3   1  UNL1        0.0855
      8 O          59.5533   89.2388    7.0097 O.2     1  UNL1        0.0416
      9 O          58.7372   87.0908    8.2221 O.co2   1  UNL1       -0.5759
     10 N          61.4100   86.3836    9.4894 N.pl3   1  UNL1       -0.3131
     11 H          60.6308   85.9317    9.0919 H       1  UNL1        0.1484
     12 C          62.7439   85.6979    9.5118 C.3     1  UNL1        0.0883
     13 C          63.4891   82.3193   12.3892 C.3     1  UNL1        0.0155
     14 C          62.6309   83.4788   12.8001 C.3     1  UNL1        0.0014
     15 C          62.3825   84.6050   11.8409 C.3     1  UNL1        0.0017
     16 C          62.9923   84.5717   10.4709 C.3     1  UNL1        0.0196
     17 C          63.8505   83.4121   10.0600 C.3     1  UNL1        0.0017
     18 C          64.0989   82.2859   11.0191 C.3     1  UNL1        0.0014
     19 N          62.8275   80.9948   14.5241 N.3     1  UNL1       -0.3211
     20 C          63.7375   81.1931   13.3483 C.3     1  UNL1        0.0651
     21 H          63.1420   80.1895   15.0654 H       1  UNL1        0.1189
     22 H          61.8762   80.8321   14.1941 H       1  UNL1        0.1189
     23 N          62.6932   89.9054   13.0880 N.pl3   1  UNL1       -0.2990
     24 H          62.4203   90.6846   13.6243 H       1  UNL1        0.1500
     25 C          63.8975   89.1050   13.4870 C.3     1  UNL1        0.1173
     26 C          63.7891   88.0790   14.5758 C.ar    1  UNL1        0.0080
     27 C          64.1061   86.6418   14.2862 C.ar    1  UNL1       -0.0018
     28 C          63.9977   85.6157   15.3750 C.ar    1  UNL1       -0.0002
     29 C          63.5722   86.0269   16.7534 C.ar    1  UNL1        0.0008
     30 C          63.2552   87.4642   17.0429 C.ar    1  UNL1        0.0111
     31 C          63.3636   88.4902   15.9541 C.ar    1  UNL1        0.0553
     32 CL         63.0466   89.9274   16.2437 Cl      1  UNL1       -0.0825
@<TRIPOS>UNITY_ATOM_ATTR
7 1
charge 1
9 1
charge -1
@<TRIPOS>BOND
     1    19    20    1
     2    20    13    1
     3    13    14    1
     4    14    15    1
     5    15    16    1
     6    16    12    1
     7    12    10    1
     8    10     1    1
     9     1     2   ar
    10     2     3   ar
    11     3    23    1
    12    23    25    1
    13    25    26    1
    14    26    27   ar
    15    27    28   ar
    16    28    29   ar
    17    29    30   ar
    18    30    31   ar
    19    31    32    1
    20     3     4   ar
    21     4     5   ar
    22     5     6   ar
    23     6     7    1
    24     7     8    2
    25     7     9    1
    26    16    17    1
    27    17    18    1
    28    18    13    1
    29     6     1   ar
    30    31    26   ar
    31    19    21    1
    32    19    22    1
    33    10    11    1
    34    23    24    1
@<TRIPOS>MOLECULE
*****
 32 34 0 0 0
SMALL
GASTEIGER

@<TRIPOS>ATOM
      1 C          62.9202   83.4595   12.9617 C.ar    1  UNL1        0.2031
      2 N          62.8473   84.6248   12.0200 N.ar    1  UNL1       -0.1927
      3 C          63.0215   84.4097   10.5457 C.ar    1  UNL1        0.2187
      4 N          63.2686   83.0293   10.0132 N.ar    1  UNL1       -0.2057
      5 C          63.3415   81.8641   10.9549 C.ar    1  UNL1        0.1799
      6 C          63.1673   82.0792   12.4291 C.ar    1  UNL1        0.3398
      7 N          63.2402   80.9139   13.3708 N.pl3   1  UNL1        0.0855
      8 O          64.2695   80.8945   14.4618 O.2     1  UNL1        0.0416
      9 O          62.2837   79.7680   13.2217 O.co2   1  UNL1       -0.5759
     10 N          62.7460   83.6745   14.4359 N.pl3   1  UNL1       -0.3131
     11 H          61.9262   83.3654   14.8850 H       1  UNL1        0.1484
     12 C          63.8207   84.3606   15.2260 C.3     1  UNL1        0.0883
     13 C          63.5696   88.7871   15.9957 C.3     1  UNL1        0.0155
     14 C          63.0217   87.8187   17.0016 C.3     1  UNL1        0.0014
     15 C          63.1054   86.3432   16.7450 C.3     1  UNL1        0.0017
     16 C          63.7370   85.8361   15.4825 C.3     1  UNL1        0.0196
     17 C          64.2850   86.8045   14.4766 C.3     1  UNL1        0.0017
     18 C          64.2012   88.2800   14.7332 C.3     1  UNL1        0.0014
     19 N          63.5061   91.2261   15.1028 N.3     1  UNL1       -0.3211
     20 C          63.4859   90.2626   16.2522 C.3     1  UNL1        0.0651
     21 H          63.4413   92.1802   15.4577 H       1  UNL1        0.1189
     22 H          62.7149   91.0378   14.4873 H       1  UNL1        0.1189
     23 N          62.9486   85.5750    9.6040 N.pl3   1  UNL1       -0.2990
     24 H          63.7336   85.8205    9.0630 H       1  UNL1        0.1500
     25 C          61.6796   86.3662    9.4866 C.3     1  UNL1        0.1173
     26 C          61.5967   87.7428   10.0765 C.ar    1  UNL1        0.0080
     27 C          62.4810   88.1197   11.2279 C.ar    1  UNL1       -0.0018
     28 C          62.3981   89.4964   11.8180 C.ar    1  UNL1       -0.0002
     29 C          61.4309   90.4960   11.2565 C.ar    1  UNL1        0.0008
     30 C          60.5466   90.1190   10.1050 C.ar    1  UNL1        0.0111
     31 C          60.6294   88.7424    9.5151 C.ar    1  UNL1        0.0553
     32 CL         59.7451   88.3654    8.3637 Cl      1  UNL1       -0.0825
@<TRIPOS>UNITY_ATOM_ATTR
7 1
charge 1
9 1
charge -1
@<TRIPOS>BOND
     1    19    20    1
     2    20    13    1
     3    13    14    1
     4    14    15    1
     5    15    16    1
     6    16    12    1
     7    12    10    1
     8    10     1    1
     9     1     2   ar
    10     2     3   ar
    11     3    23    1
    12    23    25    1
    13    25    26    1
    14    26    27   ar
    15    27    28   ar
    16    28    29   ar
    17    29    30   ar
    18    30    31   ar
    19    31    32    1
    20     3     4   ar
    21     4     5   ar
    22     5     6   ar
    23     6     7    1
    24     7     8    2
    25     7     9    1
    26    16    17    1
    27    17    18    1
    28    18    13    1
    29     6     1   ar
    30    31    26   ar
    31    19    21    1
    32    19    22    1
    33    10    11    1
    34    23    24    1
@<TRIPOS>MOLECULE
*****
 32 34 0 0 0
SMALL
GASTEIGER

@<TRIPOS>ATOM
      1 C          63.9458   90.4709   13.7894 C.ar    1  UNL1        0.2031
      2 N          64.8831   91.3775   13.0481 N.ar    1  UNL1       -0.1927
      3 C          65.7116   92.3766   13.8000 C.ar    1  UNL1        0.2187
      4 N          65.6027   92.4691   15.2932 N.ar    1  UNL1       -0.2057
      5 C          64.6653   91.5626   16.0344 C.ar    1  UNL1        0.1799
      6 C          63.8369   90.5634   15.2825 C.ar    1  UNL1        0.3398
      7 N          62.8996   89.6568   16.0237 N.pl3   1  UNL1        0.0855
      8 O          61.4646   89.5526   15.5994 O.2     1  UNL1        0.0416
      9 O          63.3972   88.8544   17.1894 O.co2   1  UNL1       -0.5759
     10 N          63.1173   89.4717   13.0375 N.pl3   1  UNL1       -0.3131
     11 H          63.2791   88.5081   13.1577 H       1  UNL1        0.1484
     12 C          62.0423   89.9408   12.1024 C.3     1  UNL1        0.0883
     13 C          60.4693   87.1795    8.9163 C.3     1  UNL1        0.0155
     14 C          60.0690   88.6251    8.9205 C.3     1  UNL1        0.0014
     15 C          60.5933   89.5455    9.9825 C.3     1  UNL1        0.0017
     16 C          61.5180   89.0204   11.0404 C.3     1  UNL1        0.0196
     17 C          61.9183   87.5748   11.0362 C.3     1  UNL1        0.0017
     18 C          61.3940   86.6544    9.9742 C.3     1  UNL1        0.0014
     19 N          58.5080   86.3426    7.4321 N.3     1  UNL1       -0.3211
     20 C          59.9449   86.2591    7.8543 C.3     1  UNL1        0.0651
     21 H          58.3260   85.6493    6.7064 H       1  UNL1        0.1189
     22 H          58.3145   87.2753    7.0673 H       1  UNL1        0.1189
     23 N          66.6489   93.2832   13.0588 N.pl3   1  UNL1       -0.2990
     24 H          67.1600   93.9685   13.5471 H       1  UNL1        0.1500
     25 C          66.8076   93.1457   11.5735 C.3     1  UNL1        0.1173
     26 C          66.8279   94.3685   10.7050 C.ar    1  UNL1        0.0080
     27 C          66.1700   95.6323   11.1738 C.ar    1  UNL1       -0.0018
     28 C          66.1903   96.8552   10.3053 C.ar    1  UNL1       -0.0002
     29 C          66.8684   96.8141    8.9680 C.ar    1  UNL1        0.0008
     30 C          67.5264   95.5502    8.4992 C.ar    1  UNL1        0.0111
     31 C          67.5061   94.3274    9.3677 C.ar    1  UNL1        0.0553
     32 CL         68.1640   93.0636    8.8989 Cl      1  UNL1       -0.0825
@<TRIPOS>UNITY_ATOM_ATTR
7 1
charge 1
9 1
charge -1
@<TRIPOS>BOND
     1    19    20    1
     2    20    13    1
     3    13    14    1
     4    14    15    1
     5    15    16    1
     6    16    12    1
     7    12    10    1
     8    10     1    1
     9     1     2   ar
    10     2     3   ar
    11     3    23    1
    12    23    25    1
    13    25    26    1
    14    26    27   ar
    15    27    28   ar
    16    28    29   ar
    17    29    30   ar
    18    30    31   ar
    19    31    32    1
    20     3     4   ar
    21     4     5   ar
    22     5     6   ar
    23     6     7    1
    24     7     8    2
    25     7     9    1
    26    16    17    1
    27    17    18    1
    28    18    13    1
    29     6     1   ar
    30    31    26   ar
    31    19    21    1
    32    19    22    1
    33    10    11    1
    34    23    24    1
