@<TRIPOS>MOLECULE
*****
 47 52 0 0 0
SMALL
GASTEIGER

@<TRIPOS>ATOM
      1 C          64.0592   89.4660   15.1148 C.ar    1  UNL1        0.1428
      2 N          63.2822   89.9455   13.9249 N.ar    1  UNL1       -0.2121
      3 C          63.6956   91.2008   13.2153 C.ar    1  UNL1        0.1545
      4 C          64.8861   91.9765   13.6958 C.ar    1  UNL1        0.1484
      5 N          65.5267   93.2398   13.2023 N.ar    1  UNL1       -0.2180
      6 C          66.6997   93.5411   14.0874 C.ar    1  UNL1        0.2004
      7 N          66.7841   92.4639   15.1278 N.ar    1  UNL1       -0.2051
      8 C          65.6632   91.4969   14.8858 C.ar    1  UNL1        0.1640
      9 N          65.2498   90.2416   15.5953 N.ar    1  UNL1       -0.3226
     10 H          65.7598   89.9269   16.3764 H       1  UNL1        0.1688
     11 C          64.1703   86.8297   13.6872 C.3     1  UNL1        0.0324
     12 C          63.7014   86.8926   15.1106 C.ar    1  UNL1       -0.0055
     13 C          63.2880   85.6373   15.8202 C.ar    1  UNL1        0.0466
     14 C          62.8191   85.7002   17.2436 C.ar    1  UNL1        0.0144
     15 C          62.7635   87.0183   17.9574 C.ar    1  UNL1        0.0014
     16 C          63.1769   88.2735   17.2478 C.ar    1  UNL1        0.0028
     17 C          63.6458   88.2107   15.8244 C.ar    1  UNL1        0.0313
     18 N          63.3435   84.3193   15.1064 N.am    1  UNL1       -0.2806
     19 C          62.5736   84.1223   13.8342 C.2     1  UNL1        0.2495
     20 O          61.7481   85.2434   13.2759 O.2     1  UNL1       -0.2698
     21 H          63.8853   83.5835   15.4729 H       1  UNL1        0.1552
     22 C          62.6292   82.8042   13.1204 C.ar    1  UNL1        0.0537
     23 C          63.1699   82.7302   11.7231 C.ar    1  UNL1        0.0042
     24 C          63.2255   81.4122   11.0093 C.ar    1  UNL1       -0.0041
     25 C          62.7404   80.1681   11.6927 C.ar    1  UNL1       -0.0228
     26 C          62.1998   80.2421   13.0899 C.ar    1  UNL1       -0.0041
     27 C          62.1441   81.5601   13.8037 C.ar    1  UNL1        0.0042
     28 C          62.7961   78.8500   10.9788 C.3     1  UNL1        0.0189
     29 C          62.9638   79.5653    9.6711 C.3     1  UNL1        0.0044
     30 C          62.6283   78.1347   12.2865 C.3     1  UNL1        0.0044
     31 C          62.8517   77.5319   10.2650 C.3     1  UNL1        0.0044
     32 N          62.9184   91.6803   12.0253 N.pl3   1  UNL1       -0.2966
     33 H          62.8646   92.6433   11.8280 H       1  UNL1        0.1537
     34 C          62.2231   90.6925   11.1360 C.ar    1  UNL1        0.0494
     35 C          60.7400   90.7828   10.9303 C.ar    1  UNL1        0.0148
     36 C          60.0447   89.7951   10.0410 C.ar    1  UNL1        0.0058
     37 C          60.8325   88.7171    9.3574 C.ar    1  UNL1        0.0537
     38 C          62.3156   88.6268    9.5631 C.ar    1  UNL1        0.0058
     39 C          63.0109   89.6145   10.4524 C.ar    1  UNL1        0.0148
     40 C          60.1372   87.7293    8.4680 C.2     1  UNL1        0.2492
     41 O          58.7058   87.9494    8.0774 O.2     1  UNL1       -0.2699
     42 N          60.8735   86.5213    7.9693 N.am    1  UNL1       -0.2709
     43 C          62.3049   86.3012    8.3599 C.3     1  UNL1        0.1258
     44 C          63.0412   85.0932    7.8611 C.3     1  UNL1        0.1637
     45 O          62.3460   84.1054    6.9718 O.3     1  UNL1       -0.3501
     46 C          60.9146   84.3255    6.5812 C.3     1  UNL1        0.1637
     47 C          60.1783   85.5335    7.0799 C.3     1  UNL1        0.1258
@<TRIPOS>BOND
     1    11    12    1
     2    12    13   ar
     3    13    18    1
     4    18    19   am
     5    19    20    2
     6    19    22    1
     7    22    23   ar
     8    23    24   ar
     9    24    25   ar
    10    25    28    1
    11    28    29    1
    12    28    30    1
    13    28    31    1
    14    25    26   ar
    15    26    27   ar
    16    13    14   ar
    17    14    15   ar
    18    15    16   ar
    19    16    17   ar
    20    17     1    1
    21     1     2   ar
    22     2     3   ar
    23     3    32    1
    24    32    34    1
    25    34    35   ar
    26    35    36   ar
    27    36    37   ar
    28    37    40    1
    29    40    41    2
    30    40    42   am
    31    42    43    1
    32    43    44    1
    33    44    45    1
    34    45    46    1
    35    46    47    1
    36    37    38   ar
    37    38    39   ar
    38     3     4   ar
    39     4     5   ar
    40     5     6   ar
    41     6     7   ar
    42     7     8   ar
    43     8     9   ar
    44    17    12   ar
    45     9     1   ar
    46    27    22   ar
    47    39    34   ar
    48     8     4    1
    49    47    42    1
    50    18    21    1
    51    32    33    1
    52     9    10    1
@<TRIPOS>MOLECULE
*****
 47 52 0 0 0
SMALL
GASTEIGER

@<TRIPOS>ATOM
      1 C          59.6217   89.4790    7.0391 C.ar    1  UNL1        0.1428
      2 N          59.8490   89.9942    8.4293 N.ar    1  UNL1       -0.2121
      3 C          60.3390   89.0672    9.5020 C.ar    1  UNL1        0.1545
      4 C          60.6017   87.6250    9.1843 C.ar    1  UNL1        0.1484
      5 N          61.0853   86.4833   10.0285 N.ar    1  UNL1       -0.2180
      6 C          61.1568   85.2624    9.1599 C.ar    1  UNL1        0.2004
      7 N          60.7175   85.6496    7.7790 N.ar    1  UNL1       -0.2051
      8 C          60.3745   87.1098    7.7940 C.ar    1  UNL1        0.1640
      9 N          59.8845   88.0368    6.7214 N.ar    1  UNL1       -0.3226
     10 H          59.7353   87.6987    5.8089 H       1  UNL1        0.1688
     11 C          61.5820   90.8324    5.2154 C.3     1  UNL1        0.0324
     12 C          60.1118   91.0827    5.0546 C.ar    1  UNL1       -0.0055
     13 C          59.6218   92.0097    3.9819 C.ar    1  UNL1        0.0466
     14 C          58.1516   92.2600    3.8212 C.ar    1  UNL1        0.0144
     15 C          57.1715   91.5834    4.7330 C.ar    1  UNL1        0.0014
     16 C          57.6615   90.6564    5.8056 C.ar    1  UNL1        0.0028
     17 C          59.1317   90.4061    5.9664 C.ar    1  UNL1        0.0313
     18 N          60.6019   92.6863    3.0702 N.am    1  UNL1       -0.2806
     19 C          60.2682   92.8790    1.6204 C.2     1  UNL1        0.2495
     20 O          58.9542   92.3950    1.0827 O.2     1  UNL1       -0.2698
     21 H          61.4643   93.0040    3.4232 H       1  UNL1        0.1552
     22 C          61.2483   93.5556    0.7087 C.ar    1  UNL1        0.0537
     23 C          61.9958   94.7683    1.1785 C.ar    1  UNL1        0.0042
     24 C          62.9760   95.4450    0.2669 C.ar    1  UNL1       -0.0041
     25 C          63.2088   94.9091   -1.1146 C.ar    1  UNL1       -0.0228
     26 C          62.4614   93.6964   -1.5845 C.ar    1  UNL1       -0.0041
     27 C          61.4811   93.0197   -0.6728 C.ar    1  UNL1        0.0042
     28 C          64.1891   95.5858   -2.0263 C.3     1  UNL1        0.0189
     29 C          65.1473   95.7387   -0.8826 C.3     1  UNL1        0.0044
     30 C          63.2308   95.4330   -3.1701 C.3     1  UNL1        0.0044
     31 C          65.1693   96.2626   -2.9381 C.3     1  UNL1        0.0044
     32 N          60.5662   89.5825   10.8924 N.pl3   1  UNL1       -0.2966
     33 H          59.8571   89.4992   11.5702 H       1  UNL1        0.1537
     34 C          61.8738   90.2246   11.2498 C.ar    1  UNL1        0.0494
     35 C          62.4608   90.0209   12.6151 C.ar    1  UNL1        0.0148
     36 C          63.7684   90.6630   12.9727 C.ar    1  UNL1        0.0058
     37 C          64.4891   91.5087   11.9650 C.ar    1  UNL1        0.0537
     38 C          63.9021   91.7123   10.5997 C.ar    1  UNL1        0.0058
     39 C          62.5945   91.0703   10.2421 C.ar    1  UNL1        0.0148
     40 C          65.7968   92.1508   12.3225 C.2     1  UNL1        0.2492
     41 O          66.7715   92.5188   11.2434 O.2     1  UNL1       -0.2699
     42 N          66.1297   92.4248   13.7592 N.am    1  UNL1       -0.2709
     43 C          65.1550   92.0568   14.8383 C.3     1  UNL1        0.1258
     44 C          65.4879   92.3308   16.2750 C.3     1  UNL1        0.1637
     45 O          66.7954   92.9729   16.6326 O.3     1  UNL1       -0.3501
     46 C          67.7701   93.3410   15.5535 C.3     1  UNL1        0.1637
     47 C          67.4372   93.0669   14.1168 C.3     1  UNL1        0.1258
@<TRIPOS>BOND
     1    11    12    1
     2    12    13   ar
     3    13    18    1
     4    18    19   am
     5    19    20    2
     6    19    22    1
     7    22    23   ar
     8    23    24   ar
     9    24    25   ar
    10    25    28    1
    11    28    29    1
    12    28    30    1
    13    28    31    1
    14    25    26   ar
    15    26    27   ar
    16    13    14   ar
    17    14    15   ar
    18    15    16   ar
    19    16    17   ar
    20    17     1    1
    21     1     2   ar
    22     2     3   ar
    23     3    32    1
    24    32    34    1
    25    34    35   ar
    26    35    36   ar
    27    36    37   ar
    28    37    40    1
    29    40    41    2
    30    40    42   am
    31    42    43    1
    32    43    44    1
    33    44    45    1
    34    45    46    1
    35    46    47    1
    36    37    38   ar
    37    38    39   ar
    38     3     4   ar
    39     4     5   ar
    40     5     6   ar
    41     6     7   ar
    42     7     8   ar
    43     8     9   ar
    44    17    12   ar
    45     9     1   ar
    46    27    22   ar
    47    39    34   ar
    48     8     4    1
    49    47    42    1
    50    18    21    1
    51    32    33    1
    52     9    10    1
@<TRIPOS>MOLECULE
*****
 47 52 0 0 0
SMALL
GASTEIGER

@<TRIPOS>ATOM
      1 C          62.8194   89.3198   12.1483 C.ar    1  UNL1        0.1428
      2 N          63.2346   88.2125   13.0710 N.ar    1  UNL1       -0.2121
      3 C          64.2053   88.4859   14.1815 C.ar    1  UNL1        0.1545
      4 C          64.7606   89.8665   14.3693 C.ar    1  UNL1        0.1484
      5 N          65.7268   90.4326   15.3673 N.ar    1  UNL1       -0.2180
      6 C          65.9087   91.8897   15.0613 C.ar    1  UNL1        0.2004
      7 N          65.0550   92.2243   13.8742 N.ar    1  UNL1       -0.2051
      8 C          64.3454   90.9738   13.4465 C.ar    1  UNL1        0.1640
      9 N          63.3748   90.7004   12.3360 N.ar    1  UNL1       -0.3226
     10 H          63.1022   91.4272   11.7304 H       1  UNL1        0.1688
     11 C          62.8325   91.0364    9.6880 C.3     1  UNL1        0.0324
     12 C          61.8553   89.9047    9.8077 C.ar    1  UNL1       -0.0055
     13 C          60.8847   89.6314    8.6972 C.ar    1  UNL1        0.0466
     14 C          59.9075   88.4997    8.8169 C.ar    1  UNL1        0.0144
     15 C          59.9009   87.6413   10.0470 C.ar    1  UNL1        0.0014
     16 C          60.8716   87.9147   11.1575 C.ar    1  UNL1        0.0028
     17 C          61.8487   89.0464   11.0378 C.ar    1  UNL1        0.0313
     18 N          60.8912   90.4897    7.4671 N.am    1  UNL1       -0.2806
     19 C          59.9638   90.1780    6.3301 C.2     1  UNL1        0.2495
     20 O          59.0298   89.0080    6.4232 O.2     1  UNL1       -0.2698
     21 H          61.5043   91.2576    7.4060 H       1  UNL1        0.1552
     22 C          59.9704   91.0364    5.1000 C.ar    1  UNL1        0.0537
     23 C          58.6877   91.6197    4.5856 C.ar    1  UNL1        0.0042
     24 C          58.6943   92.4780    3.3556 C.ar    1  UNL1       -0.0041
     25 C          59.9835   92.7532    2.6399 C.ar    1  UNL1       -0.0228
     26 C          61.2661   92.1699    3.1542 C.ar    1  UNL1       -0.0041
     27 C          61.2596   91.3115    4.3843 C.ar    1  UNL1        0.0042
     28 C          59.9900   93.6116    1.4098 C.3     1  UNL1        0.0189
     29 C          60.2620   94.8206    2.2548 C.3     1  UNL1        0.0044
     30 C          59.7179   92.4026    0.5646 C.3     1  UNL1        0.0044
     31 C          59.9965   94.4700    0.1796 C.3     1  UNL1        0.0044
     32 N          64.6205   87.3785   15.1043 N.pl3   1  UNL1       -0.2966
     33 H          65.1666   87.5784   15.8986 H       1  UNL1        0.1537
     34 C          64.2035   85.9666   14.8167 C.ar    1  UNL1        0.0494
     35 C          62.8427   85.4880   15.2279 C.ar    1  UNL1        0.0148
     36 C          62.4257   84.0761   14.9404 C.ar    1  UNL1        0.0058
     37 C          63.3695   83.1429   14.2416 C.ar    1  UNL1        0.0537
     38 C          64.7303   83.6215   13.8304 C.ar    1  UNL1        0.0058
     39 C          65.1473   85.0334   14.1179 C.ar    1  UNL1        0.0148
     40 C          62.9526   81.7309   13.9540 C.2     1  UNL1        0.2492
     41 O          62.4696   80.8498   15.0677 O.2     1  UNL1       -0.2699
     42 N          63.0186   81.2002   12.5526 N.am    1  UNL1       -0.2709
     43 C          63.5015   82.0813   11.4389 C.3     1  UNL1        0.1258
     44 C          63.5675   81.5506   10.0374 C.3     1  UNL1        0.1637
     45 O          63.1506   80.1387    9.7497 O.3     1  UNL1       -0.3501
     46 C          62.6677   79.2576   10.8634 C.3     1  UNL1        0.1637
     47 C          62.6017   79.7883   12.2649 C.3     1  UNL1        0.1258
@<TRIPOS>BOND
     1    11    12    1
     2    12    13   ar
     3    13    18    1
     4    18    19   am
     5    19    20    2
     6    19    22    1
     7    22    23   ar
     8    23    24   ar
     9    24    25   ar
    10    25    28    1
    11    28    29    1
    12    28    30    1
    13    28    31    1
    14    25    26   ar
    15    26    27   ar
    16    13    14   ar
    17    14    15   ar
    18    15    16   ar
    19    16    17   ar
    20    17     1    1
    21     1     2   ar
    22     2     3   ar
    23     3    32    1
    24    32    34    1
    25    34    35   ar
    26    35    36   ar
    27    36    37   ar
    28    37    40    1
    29    40    41    2
    30    40    42   am
    31    42    43    1
    32    43    44    1
    33    44    45    1
    34    45    46    1
    35    46    47    1
    36    37    38   ar
    37    38    39   ar
    38     3     4   ar
    39     4     5   ar
    40     5     6   ar
    41     6     7   ar
    42     7     8   ar
    43     8     9   ar
    44    17    12   ar
    45     9     1   ar
    46    27    22   ar
    47    39    34   ar
    48     8     4    1
    49    47    42    1
    50    18    21    1
    51    32    33    1
    52     9    10    1
@<TRIPOS>MOLECULE
*****
 47 52 0 0 0
SMALL
GASTEIGER

@<TRIPOS>ATOM
      1 C          62.2053   87.5278   11.8078 C.ar    1  UNL1        0.1428
      2 N          62.7734   88.6471   12.6288 N.ar    1  UNL1       -0.2121
      3 C          63.7771   88.3539   13.7043 C.ar    1  UNL1        0.1545
      4 C          64.2127   86.9413   13.9586 C.ar    1  UNL1        0.1484
      5 N          65.1786   86.3505   14.9425 N.ar    1  UNL1       -0.2180
      6 C          65.2073   84.8660   14.7295 C.ar    1  UNL1        0.2004
      7 N          64.2593   84.5393   13.6140 N.ar    1  UNL1       -0.2051
      8 C          63.6445   85.8219   13.1375 C.ar    1  UNL1        0.1640
      9 N          62.6408   86.1152   12.0621 N.ar    1  UNL1       -0.3226
     10 H          62.2679   85.3805   11.5232 H       1  UNL1        0.1688
     11 C          62.9092   89.3947    9.5674 C.3     1  UNL1        0.0324
     12 C          61.5535   88.7544    9.6122 C.ar    1  UNL1       -0.0055
     13 C          60.5497   89.0476    8.5367 C.ar    1  UNL1        0.0466
     14 C          59.1940   88.4074    8.5815 C.ar    1  UNL1        0.0144
     15 C          58.8420   87.4739    9.7017 C.ar    1  UNL1        0.0014
     16 C          59.8458   87.1808   10.7771 C.ar    1  UNL1        0.0028
     17 C          61.2015   87.8210   10.7323 C.ar    1  UNL1        0.0313
     18 N          60.9017   89.9810    7.4166 N.am    1  UNL1       -0.2806
     19 C          60.0158   90.0718    6.2095 C.2     1  UNL1        0.2495
     20 O          58.7780   89.2290    6.1226 O.2     1  UNL1       -0.2698
     21 H          61.7141   90.5341    7.4737 H       1  UNL1        0.1552
     22 C          60.3679   91.0052    5.0894 C.ar    1  UNL1        0.0537
     23 C          61.7279   90.9417    4.4596 C.ar    1  UNL1        0.0042
     24 C          62.0801   91.8751    3.3396 C.ar    1  UNL1       -0.0041
     25 C          61.0723   92.8720    2.8491 C.ar    1  UNL1       -0.0228
     26 C          59.7123   92.9355    3.4787 C.ar    1  UNL1       -0.0041
     27 C          59.3601   92.0021    4.5989 C.ar    1  UNL1        0.0042
     28 C          61.4245   93.8054    1.7289 C.3     1  UNL1        0.0189
     29 C          62.6764   93.0212    1.4690 C.3     1  UNL1        0.0044
     30 C          60.1726   94.5897    1.9889 C.3     1  UNL1        0.0044
     31 C          61.7766   94.7389    0.6088 C.3     1  UNL1        0.0044
     32 N          64.3452   89.4734   14.5254 N.pl3   1  UNL1       -0.2966
     33 H          64.4213   89.3779   15.5023 H       1  UNL1        0.1537
     34 C          64.7975   90.7383   13.8581 C.ar    1  UNL1        0.0494
     35 C          64.1626   91.1757   12.5713 C.ar    1  UNL1        0.0148
     36 C          64.6148   92.4406   11.9039 C.ar    1  UNL1        0.0058
     37 C          65.7018   93.2681   12.5232 C.ar    1  UNL1        0.0537
     38 C          66.3367   92.8308   13.8099 C.ar    1  UNL1        0.0058
     39 C          65.8845   91.5658   14.4774 C.ar    1  UNL1        0.0148
     40 C          66.1541   94.5332   11.8558 C.2     1  UNL1        0.2492
     41 O          65.9038   95.8584   12.5123 O.2     1  UNL1       -0.2699
     42 N          66.8567   94.4728   10.5319 N.am    1  UNL1       -0.2709
     43 C          67.1070   93.1475    9.8755 C.3     1  UNL1        0.1258
     44 C          67.8096   93.0871    8.5516 C.3     1  UNL1        0.1637
     45 O          68.2619   94.3520    7.8841 O.3     1  UNL1       -0.3501
     46 C          68.0116   95.6773    8.5406 C.3     1  UNL1        0.1637
     47 C          67.3090   95.7376    9.8645 C.3     1  UNL1        0.1258
@<TRIPOS>BOND
     1    11    12    1
     2    12    13   ar
     3    13    18    1
     4    18    19   am
     5    19    20    2
     6    19    22    1
     7    22    23   ar
     8    23    24   ar
     9    24    25   ar
    10    25    28    1
    11    28    29    1
    12    28    30    1
    13    28    31    1
    14    25    26   ar
    15    26    27   ar
    16    13    14   ar
    17    14    15   ar
    18    15    16   ar
    19    16    17   ar
    20    17     1    1
    21     1     2   ar
    22     2     3   ar
    23     3    32    1
    24    32    34    1
    25    34    35   ar
    26    35    36   ar
    27    36    37   ar
    28    37    40    1
    29    40    41    2
    30    40    42   am
    31    42    43    1
    32    43    44    1
    33    44    45    1
    34    45    46    1
    35    46    47    1
    36    37    38   ar
    37    38    39   ar
    38     3     4   ar
    39     4     5   ar
    40     5     6   ar
    41     6     7   ar
    42     7     8   ar
    43     8     9   ar
    44    17    12   ar
    45     9     1   ar
    46    27    22   ar
    47    39    34   ar
    48     8     4    1
    49    47    42    1
    50    18    21    1
    51    32    33    1
    52     9    10    1
@<TRIPOS>MOLECULE
*****
 47 52 0 0 0
SMALL
GASTEIGER

@<TRIPOS>ATOM
      1 C          59.5570   89.5523    6.9868 C.ar    1  UNL1        0.1428
      2 N          60.3986   90.5269    6.2177 N.ar    1  UNL1       -0.2121
      3 C          59.7586   91.4475    5.2212 C.ar    1  UNL1        0.1545
      4 C          58.2769   91.3934    4.9940 C.ar    1  UNL1        0.1484
      5 N          57.3720   92.1705    4.0844 N.ar    1  UNL1       -0.2180
      6 C          55.9711   91.6760    4.2915 C.ar    1  UNL1        0.2004
      7 N          56.0101   90.5934    5.3290 N.ar    1  UNL1       -0.2051
      8 C          57.4353   90.4188    5.7632 C.ar    1  UNL1        0.1640
      9 N          58.0753   89.4982    6.7596 N.ar    1  UNL1       -0.3226
     10 H          57.5229   88.8584    7.2644 H       1  UNL1        0.1688
     11 C          61.6613   90.5927    8.8548 C.3     1  UNL1        0.0324
     12 C          61.2491   89.1518    8.9172 C.ar    1  UNL1       -0.0055
     13 C          61.8892   88.2311    9.9136 C.ar    1  UNL1        0.0466
     14 C          61.4770   86.7903    9.9760 C.ar    1  UNL1        0.0144
     15 C          60.4248   86.2700    9.0420 C.ar    1  UNL1        0.0014
     16 C          59.7849   87.1907    8.0456 C.ar    1  UNL1        0.0028
     17 C          60.1971   88.6316    7.9833 C.ar    1  UNL1        0.0313
     18 N          62.9413   88.7514   10.8476 N.am    1  UNL1       -0.2806
     19 C          62.6339   89.9048   11.7560 C.2     1  UNL1        0.2495
     20 O          61.2743   90.5379   11.7304 O.2     1  UNL1       -0.2698
     21 H          63.8336   88.3358   10.8643 H       1  UNL1        0.1552
     22 C          63.6860   90.4249   12.6899 C.ar    1  UNL1        0.0537
     23 C          64.5211   91.6070   12.2954 C.ar    1  UNL1        0.0042
     24 C          65.5732   92.1272   13.2292 C.ar    1  UNL1       -0.0041
     25 C          65.7905   91.4655   14.5577 C.ar    1  UNL1       -0.0228
     26 C          64.9556   90.2835   14.9523 C.ar    1  UNL1       -0.0041
     27 C          63.9033   89.7632   14.0184 C.ar    1  UNL1        0.0042
     28 C          66.8428   91.9858   15.4916 C.3     1  UNL1        0.0189
     29 C          67.9071   91.5978   14.5085 C.3     1  UNL1        0.0044
     30 C          65.7784   92.3737   16.4747 C.3     1  UNL1        0.0044
     31 C          67.8950   92.5061   16.4255 C.3     1  UNL1        0.0044
     32 N          60.6003   92.4222    4.4520 N.pl3   1  UNL1       -0.2966
     33 H          61.2745   92.9664    4.9195 H       1  UNL1        0.1537
     34 C          60.4148   92.5677    2.9707 C.ar    1  UNL1        0.0494
     35 C          59.7139   93.7729    2.4175 C.ar    1  UNL1        0.0148
     36 C          59.5283   93.9185    0.9362 C.ar    1  UNL1        0.0058
     37 C          60.0437   92.8588    0.0081 C.ar    1  UNL1        0.0537
     38 C          60.7446   91.6535    0.5613 C.ar    1  UNL1        0.0058
     39 C          60.9302   91.5080    2.0426 C.ar    1  UNL1        0.0148
     40 C          59.8582   93.0042   -1.4734 C.2     1  UNL1        0.2492
     41 O          61.0037   93.4511   -2.3325 O.2     1  UNL1       -0.2699
     42 N          58.5270   92.7027   -2.0956 N.am    1  UNL1       -0.2709
     43 C          57.3815   92.2558   -1.2365 C.3     1  UNL1        0.1258
     44 C          56.0504   91.9543   -1.8588 C.3     1  UNL1        0.1637
     45 O          55.8648   92.0997   -3.3401 O.3     1  UNL1       -0.3501
     46 C          57.0103   92.5466   -4.1992 C.3     1  UNL1        0.1637
     47 C          58.3414   92.8481   -3.5770 C.3     1  UNL1        0.1258
@<TRIPOS>BOND
     1    11    12    1
     2    12    13   ar
     3    13    18    1
     4    18    19   am
     5    19    20    2
     6    19    22    1
     7    22    23   ar
     8    23    24   ar
     9    24    25   ar
    10    25    28    1
    11    28    29    1
    12    28    30    1
    13    28    31    1
    14    25    26   ar
    15    26    27   ar
    16    13    14   ar
    17    14    15   ar
    18    15    16   ar
    19    16    17   ar
    20    17     1    1
    21     1     2   ar
    22     2     3   ar
    23     3    32    1
    24    32    34    1
    25    34    35   ar
    26    35    36   ar
    27    36    37   ar
    28    37    40    1
    29    40    41    2
    30    40    42   am
    31    42    43    1
    32    43    44    1
    33    44    45    1
    34    45    46    1
    35    46    47    1
    36    37    38   ar
    37    38    39   ar
    38     3     4   ar
    39     4     5   ar
    40     5     6   ar
    41     6     7   ar
    42     7     8   ar
    43     8     9   ar
    44    17    12   ar
    45     9     1   ar
    46    27    22   ar
    47    39    34   ar
    48     8     4    1
    49    47    42    1
    50    18    21    1
    51    32    33    1
    52     9    10    1
@<TRIPOS>MOLECULE
*****
 47 52 0 0 0
SMALL
GASTEIGER

@<TRIPOS>ATOM
      1 C          59.6075   89.5068    7.0414 C.ar    1  UNL1        0.1428
      2 N          60.4732   90.4288    6.2351 N.ar    1  UNL1       -0.2121
      3 C          59.8541   91.3396    5.2166 C.ar    1  UNL1        0.1545
      4 C          58.3692   91.3282    5.0044 C.ar    1  UNL1        0.1484
      5 N          57.4815   92.1070    4.0796 N.ar    1  UNL1       -0.2180
      6 C          56.0671   91.6661    4.3143 C.ar    1  UNL1        0.2004
      7 N          56.0807   90.6149    5.3842 N.ar    1  UNL1       -0.2051
      8 C          57.5035   90.4061    5.8108 C.ar    1  UNL1        0.1640
      9 N          58.1226   89.4953    6.8292 N.ar    1  UNL1       -0.3226
     10 H          57.5544   88.8901    7.3585 H       1  UNL1        0.1688
     11 C          61.7275   90.5465    8.8919 C.3     1  UNL1        0.0324
     12 C          61.2865   89.1158    8.9851 C.ar    1  UNL1       -0.0055
     13 C          61.9056   88.2050   10.0036 C.ar    1  UNL1        0.0466
     14 C          61.4646   86.7744   10.0968 C.ar    1  UNL1        0.0144
     15 C          60.4046   86.2545    9.1715 C.ar    1  UNL1        0.0014
     16 C          59.7855   87.1653    8.1531 C.ar    1  UNL1        0.0028
     17 C          60.2266   88.5960    8.0599 C.ar    1  UNL1        0.0313
     18 N          62.9656   88.7249   10.9288 N.am    1  UNL1       -0.2806
     19 C          62.6957   89.9341   11.7745 C.2     1  UNL1        0.2495
     20 O          61.3658   90.6232   11.6950 O.2     1  UNL1       -0.2698
     21 H          63.8384   88.2725   10.9809 H       1  UNL1        0.1552
     22 C          63.7558   90.4539   12.6997 C.ar    1  UNL1        0.0537
     23 C          64.5648   91.6564   12.3130 C.ar    1  UNL1        0.0042
     24 C          65.6249   92.1763   13.2381 C.ar    1  UNL1       -0.0041
     25 C          65.8760   91.4937   14.5500 C.ar    1  UNL1       -0.0228
     26 C          65.0670   90.2912   14.9367 C.ar    1  UNL1       -0.0041
     27 C          64.0069   89.7713   14.0116 C.ar    1  UNL1        0.0042
     28 C          66.9361   92.0136   15.4751 C.3     1  UNL1        0.0189
     29 C          65.8798   92.4060   16.4650 C.3     1  UNL1        0.0044
     30 C          67.9925   91.6212   14.4851 C.3     1  UNL1        0.0044
     31 C          67.9963   92.5335   16.4002 C.3     1  UNL1        0.0044
     32 N          60.7199   92.2617    4.4103 N.pl3   1  UNL1       -0.2966
     33 H          61.4538   92.7534    4.8449 H       1  UNL1        0.1537
     34 C          60.4676   92.4347    2.9418 C.ar    1  UNL1        0.0494
     35 C          59.5581   93.5262    2.4606 C.ar    1  UNL1        0.0148
     36 C          59.3057   93.6992    0.9922 C.ar    1  UNL1        0.0058
     37 C          59.9628   92.7807    0.0050 C.ar    1  UNL1        0.0537
     38 C          60.8722   91.6892    0.4861 C.ar    1  UNL1        0.0058
     39 C          61.1246   91.5162    1.9546 C.ar    1  UNL1        0.0148
     40 C          59.7104   92.9537   -1.4636 C.2     1  UNL1        0.2492
     41 O          58.4955   92.3394   -2.0933 O.2     1  UNL1       -0.2699
     42 N          60.6732   93.7409   -2.3023 N.am    1  UNL1       -0.2709
     43 C          61.8881   94.3552   -1.6726 C.3     1  UNL1        0.1258
     44 C          62.8508   95.1424   -2.5113 C.3     1  UNL1        0.1637
     45 O          62.5986   95.3154   -3.9797 O.3     1  UNL1       -0.3501
     46 C          61.3836   94.7012   -4.6095 C.3     1  UNL1        0.1637
     47 C          60.4209   93.9139   -3.7708 C.3     1  UNL1        0.1258
@<TRIPOS>BOND
     1    11    12    1
     2    12    13   ar
     3    13    18    1
     4    18    19   am
     5    19    20    2
     6    19    22    1
     7    22    23   ar
     8    23    24   ar
     9    24    25   ar
    10    25    28    1
    11    28    29    1
    12    28    30    1
    13    28    31    1
    14    25    26   ar
    15    26    27   ar
    16    13    14   ar
    17    14    15   ar
    18    15    16   ar
    19    16    17   ar
    20    17     1    1
    21     1     2   ar
    22     2     3   ar
    23     3    32    1
    24    32    34    1
    25    34    35   ar
    26    35    36   ar
    27    36    37   ar
    28    37    40    1
    29    40    41    2
    30    40    42   am
    31    42    43    1
    32    43    44    1
    33    44    45    1
    34    45    46    1
    35    46    47    1
    36    37    38   ar
    37    38    39   ar
    38     3     4   ar
    39     4     5   ar
    40     5     6   ar
    41     6     7   ar
    42     7     8   ar
    43     8     9   ar
    44    17    12   ar
    45     9     1   ar
    46    27    22   ar
    47    39    34   ar
    48     8     4    1
    49    47    42    1
    50    18    21    1
    51    32    33    1
    52     9    10    1
