@<TRIPOS>MOLECULE
*****
 44 48 0 0 0
SMALL
GASTEIGER

@<TRIPOS>ATOM
      1 C          61.7191   87.3800    9.9713 C.ar    1  UNL1        0.0611
      2 C          61.6922   85.8853    9.8473 C.ar    1  UNL1        0.0112
      3 C          62.2428   85.0312   10.9505 C.ar    1  UNL1        0.0208
      4 C          62.8204   85.6716   12.1778 C.ar    1  UNL1        0.1218
      5 N          62.8473   87.1662   12.3019 N.ar    1  UNL1       -0.2421
      6 C          62.2966   88.0204   11.1986 C.ar    1  UNL1        0.1068
      7 C          63.3710   84.8174   13.2811 C.3     1  UNL1        0.3254
      8 F          61.9996   84.2597   13.0403 F       1  UNL1       -0.1949
      9 F          64.6471   85.6052   13.2541 F       1  UNL1       -0.1949
     10 C          63.9217   83.9633   14.3843 C.3     1  UNL1        0.1932
     11 O          64.4724   83.1091   15.4875 O.3     1  UNL1       -0.3755
     12 H          64.8363   83.6767   16.1849 H       1  UNL1        0.2110
     13 C          63.5195   82.7304   13.6306 C.ar    1  UNL1        0.0368
     14 C          62.4924   81.8009   14.2063 C.ar    1  UNL1        0.0028
     15 C          62.0902   80.5681   13.4526 C.ar    1  UNL1        0.0295
     16 C          62.7149   80.2646   12.1231 C.ar    1  UNL1        0.1424
     17 F          62.3126   79.0316   11.3693 F       1  UNL1       -0.2041
     18 C          63.7419   81.1939   11.5473 C.ar    1  UNL1        0.0590
     19 C          64.1442   82.4269   12.3011 C.ar    1  UNL1        0.1408
     20 F          65.1711   83.3563   11.7253 F       1  UNL1       -0.2043
     21 C          64.3239   85.1961   15.1381 C.3     1  UNL1        0.1679
     22 N          63.3172   85.9221   15.9804 N.ar    1  UNL1       -0.2078
     23 C          63.4167   87.3457   16.4426 C.ar    1  UNL1        0.2216
     24 N          62.1953   87.6553   17.2563 N.ar    1  UNL1       -0.1048
     25 N          61.3408   86.4232   17.2970 N.ar    1  UNL1       -0.0226
     26 N          62.0342   85.3520   16.5085 N.ar    1  UNL1       -0.0428
     27 C          60.6178   89.0882    7.7648 C.1     1  UNL1       -0.0597
     28 C          61.1684   88.2341    8.8680 C.1     1  UNL1       -0.0582
     29 C          58.9659   91.6508    4.4550 C.ar    1  UNL1        0.1391
     30 C          60.4490   91.4877    4.6081 C.ar    1  UNL1        0.0375
     31 C          60.9997   90.6335    5.7114 C.ar    1  UNL1        0.0114
     32 C          60.0671   89.9424    6.6615 C.ar    1  UNL1        0.0422
     33 C          58.5839   90.1056    6.5084 C.ar    1  UNL1        0.0114
     34 C          58.0333   90.9597    5.4052 C.ar    1  UNL1        0.0375
     35 O          58.4152   92.5050    3.3518 O.3     1  UNL1       -0.4706
     36 C          59.1139   92.5596    2.0256 C.3     1  UNL1        0.2320
     37 C          62.7656   93.9297    1.2920 C.ar    1  UNL1        0.0682
     38 C          62.5413   95.4086    1.4038 C.ar    1  UNL1        0.0103
     39 C          61.1745   95.9378    1.7229 C.ar    1  UNL1        0.0005
     40 C          60.0320   94.9882    1.9302 C.ar    1  UNL1       -0.0006
     41 C          60.2564   93.5094    1.8183 C.ar    1  UNL1        0.0218
     42 C          61.6231   92.9801    1.4993 C.ar    1  UNL1        0.0096
     43 N          65.4991   92.8712    0.6539 N.1     1  UNL1       -0.1908
     44 C          64.1324   93.4005    0.9730 C.1     1  UNL1        0.1004
@<TRIPOS>BOND
     1    43    44    3
     2    44    37    1
     3    37    38   ar
     4    38    39   ar
     5    39    40   ar
     6    40    41   ar
     7    41    36    1
     8    36    35    1
     9    35    29    1
    10    29    30   ar
    11    30    31   ar
    12    31    32   ar
    13    32    27    1
    14    27    28    3
    15    28     1    1
    16     1     2   ar
    17     2     3   ar
    18     3     4   ar
    19     4     7    1
    20     7     8    1
    21     7     9    1
    22     7    10    1
    23    10    11    1
    24    10    21    1
    25    21    22    1
    26    22    23   ar
    27    23    24   ar
    28    24    25   ar
    29    25    26   ar
    30    10    13    1
    31    13    14   ar
    32    14    15   ar
    33    15    16   ar
    34    16    17    1
    35    16    18   ar
    36    18    19   ar
    37    19    20    1
    38     4     5   ar
    39     5     6   ar
    40    32    33   ar
    41    33    34   ar
    42    41    42   ar
    43    42    37   ar
    44    34    29   ar
    45     6     1   ar
    46    26    22   ar
    47    19    13   ar
    48    11    12    1
@<TRIPOS>MOLECULE
*****
 44 48 0 0 0
SMALL
GASTEIGER

@<TRIPOS>ATOM
      1 C          61.7057   87.2433   10.0675 C.ar    1  UNL1        0.0611
      2 C          61.6149   85.7488    9.9772 C.ar    1  UNL1        0.0112
      3 C          62.1683   84.8958   11.0800 C.ar    1  UNL1        0.0208
      4 C          62.8124   85.5373   12.2731 C.ar    1  UNL1        0.1218
      5 N          62.9031   87.0318   12.3635 N.ar    1  UNL1       -0.2421
      6 C          62.3498   87.8849   11.2607 C.ar    1  UNL1        0.1068
      7 C          63.3658   84.6842   13.3759 C.3     1  UNL1        0.3254
      8 F          61.9864   84.1389   13.1525 F       1  UNL1       -0.1949
      9 F          64.6494   85.4590   13.3311 F       1  UNL1       -0.1949
     10 C          63.9192   83.8313   14.4787 C.3     1  UNL1        0.1932
     11 O          64.4726   82.9783   15.5815 O.3     1  UNL1       -0.3755
     12 H          64.8422   83.5465   16.2753 H       1  UNL1        0.2110
     13 C          63.5085   82.5977   13.7306 C.ar    1  UNL1        0.0368
     14 C          62.4676   81.6834   14.3057 C.ar    1  UNL1        0.0028
     15 C          62.0570   80.4499   13.5576 C.ar    1  UNL1        0.0295
     16 C          62.6872   80.1305   12.2344 C.ar    1  UNL1        0.1424
     17 F          62.2765   78.8969   11.4863 F       1  UNL1       -0.2041
     18 C          63.7280   81.0447   11.6593 C.ar    1  UNL1        0.0590
     19 C          64.1387   82.2784   12.4074 C.ar    1  UNL1        0.1408
     20 F          65.1796   83.1926   11.8323 F       1  UNL1       -0.2043
     21 C          64.3298   85.0648   15.2268 C.3     1  UNL1        0.1679
     22 N          63.3102   85.8470   16.0005 N.ar    1  UNL1       -0.2078
     23 C          63.4274   87.2852   16.4104 C.ar    1  UNL1        0.2216
     24 N          62.1840   87.6554   17.1633 N.ar    1  UNL1       -0.1048
     25 N          61.2984   86.4460   17.2188 N.ar    1  UNL1       -0.0226
     26 N          61.9944   85.3284   16.5002 N.ar    1  UNL1       -0.0428
     27 C          60.5990   88.9493    7.8619 C.1     1  UNL1       -0.0597
     28 C          61.1523   88.0963    8.9647 C.1     1  UNL1       -0.0582
     29 C          58.9388   91.5084    4.5536 C.ar    1  UNL1        0.1391
     30 C          58.0084   90.8121    5.5021 C.ar    1  UNL1        0.0375
     31 C          58.5618   89.9591    6.6048 C.ar    1  UNL1        0.0114
     32 C          60.0456   89.8024    6.7591 C.ar    1  UNL1        0.0422
     33 C          60.9760   90.4986    5.8107 C.ar    1  UNL1        0.0114
     34 C          60.4226   91.3516    4.7080 C.ar    1  UNL1        0.0375
     35 O          58.3854   92.3614    3.4508 O.3     1  UNL1       -0.4706
     36 C          59.2323   93.4369    2.8376 C.3     1  UNL1        0.2320
     37 C          59.6571   92.8365   -1.0623 C.ar    1  UNL1        0.0682
     38 C          61.1513   92.7740   -1.1784 C.ar    1  UNL1        0.0103
     39 C          62.0058   92.9325    0.0442 C.ar    1  UNL1        0.0005
     40 C          61.3662   93.1534    1.3828 C.ar    1  UNL1       -0.0006
     41 C          59.8720   93.2159    1.4989 C.ar    1  UNL1        0.0218
     42 C          59.0175   93.0575    0.2764 C.ar    1  UNL1        0.0096
     43 N          57.9480   92.5196   -3.5074 N.1     1  UNL1       -0.1908
     44 C          58.8026   92.6781   -2.2848 C.1     1  UNL1        0.1004
@<TRIPOS>BOND
     1    43    44    3
     2    44    37    1
     3    37    38   ar
     4    38    39   ar
     5    39    40   ar
     6    40    41   ar
     7    41    36    1
     8    36    35    1
     9    35    29    1
    10    29    30   ar
    11    30    31   ar
    12    31    32   ar
    13    32    27    1
    14    27    28    3
    15    28     1    1
    16     1     2   ar
    17     2     3   ar
    18     3     4   ar
    19     4     7    1
    20     7     8    1
    21     7     9    1
    22     7    10    1
    23    10    11    1
    24    10    21    1
    25    21    22    1
    26    22    23   ar
    27    23    24   ar
    28    24    25   ar
    29    25    26   ar
    30    10    13    1
    31    13    14   ar
    32    14    15   ar
    33    15    16   ar
    34    16    17    1
    35    16    18   ar
    36    18    19   ar
    37    19    20    1
    38     4     5   ar
    39     5     6   ar
    40    32    33   ar
    41    33    34   ar
    42    41    42   ar
    43    42    37   ar
    44    34    29   ar
    45     6     1   ar
    46    26    22   ar
    47    19    13   ar
    48    11    12    1
@<TRIPOS>MOLECULE
*****
 44 48 0 0 0
SMALL
GASTEIGER

@<TRIPOS>ATOM
      1 C          60.3279   91.6605    4.1601 C.ar    1  UNL1        0.0611
      2 C          61.5816   91.9201    3.3783 C.ar    1  UNL1        0.0112
      3 C          61.5354   92.7814    2.1511 C.ar    1  UNL1        0.0208
      4 C          60.2356   93.3831    1.7056 C.ar    1  UNL1        0.1218
      5 N          58.9820   93.1235    2.4873 N.ar    1  UNL1       -0.2421
      6 C          59.0281   92.2622    3.7145 C.ar    1  UNL1        0.1068
      7 C          60.1894   94.2444    0.4783 C.3     1  UNL1        0.3254
      8 F          60.6976   92.9251   -0.0229 F       1  UNL1       -0.1949
      9 F          59.6772   95.3892    1.3011 F       1  UNL1       -0.1949
     10 C          60.1433   95.1057   -0.7488 C.3     1  UNL1        0.1932
     11 O          60.0971   95.9669   -1.9760 O.3     1  UNL1       -0.3755
     12 H          60.7521   96.6780   -1.8968 H       1  UNL1        0.2110
     13 C          59.0527   94.2439   -1.3126 C.ar    1  UNL1        0.0368
     14 C          57.6747   94.2960   -0.7222 C.ar    1  UNL1        0.0028
     15 C          56.5841   93.4343   -1.2860 C.ar    1  UNL1        0.0295
     16 C          56.8714   92.5203   -2.4402 C.ar    1  UNL1        0.1424
     17 F          55.7807   91.6585   -3.0040 F       1  UNL1       -0.2041
     18 C          58.2493   92.4682   -3.0306 C.ar    1  UNL1        0.0590
     19 C          59.3400   93.3300   -2.4668 C.ar    1  UNL1        0.1408
     20 F          60.7179   93.2778   -3.0572 F       1  UNL1       -0.2043
     21 C          61.2339   95.9674   -0.1850 C.3     1  UNL1        0.1679
     22 N          62.6617   95.7192   -0.5721 N.ar    1  UNL1       -0.2078
     23 C          63.8135   95.5434    0.3725 C.ar    1  UNL1        0.2216
     24 N          65.0520   95.3188   -0.4434 N.ar    1  UNL1       -0.1048
     25 N          64.6656   95.3557   -1.8923 N.ar    1  UNL1       -0.0226
     26 N          63.1883   95.6032   -1.9719 N.ar    1  UNL1       -0.0428
     27 C          60.4203   89.9380    6.6145 C.1     1  UNL1       -0.0597
     28 C          60.3741   90.7993    5.3873 C.1     1  UNL1       -0.0582
     29 C          60.5587   87.3541   10.2961 C.ar    1  UNL1        0.1391
     30 C          60.1094   86.7729    8.9883 C.ar    1  UNL1        0.0375
     31 C          60.0633   87.6341    7.7612 C.ar    1  UNL1        0.0114
     32 C          60.4665   89.0767    7.8417 C.ar    1  UNL1        0.0422
     33 C          60.9157   89.6580    9.1495 C.ar    1  UNL1        0.0114
     34 C          60.9619   88.7967   10.3766 C.ar    1  UNL1        0.0375
     35 O          60.6049   86.4928   11.5233 O.3     1  UNL1       -0.4706
     36 C          61.9260   86.1088   12.1208 C.3     1  UNL1        0.2320
     37 C          63.3473   82.4085   12.3159 C.ar    1  UNL1        0.0682
     38 C          63.8954   82.2420   10.9296 C.ar    1  UNL1        0.0103
     39 C          63.7870   83.3643    9.9404 C.ar    1  UNL1        0.0005
     40 C          63.1305   84.6532   10.3374 C.ar    1  UNL1       -0.0006
     41 C          62.5825   84.8198   11.7237 C.ar    1  UNL1        0.0218
     42 C          62.6909   83.6974   12.7129 C.ar    1  UNL1        0.0096
     43 N          63.5641   80.1638   14.2943 N.1     1  UNL1       -0.1908
     44 C          63.4557   81.2862   13.3051 C.1     1  UNL1        0.1004
@<TRIPOS>BOND
     1    43    44    3
     2    44    37    1
     3    37    38   ar
     4    38    39   ar
     5    39    40   ar
     6    40    41   ar
     7    41    36    1
     8    36    35    1
     9    35    29    1
    10    29    30   ar
    11    30    31   ar
    12    31    32   ar
    13    32    27    1
    14    27    28    3
    15    28     1    1
    16     1     2   ar
    17     2     3   ar
    18     3     4   ar
    19     4     7    1
    20     7     8    1
    21     7     9    1
    22     7    10    1
    23    10    11    1
    24    10    21    1
    25    21    22    1
    26    22    23   ar
    27    23    24   ar
    28    24    25   ar
    29    25    26   ar
    30    10    13    1
    31    13    14   ar
    32    14    15   ar
    33    15    16   ar
    34    16    17    1
    35    16    18   ar
    36    18    19   ar
    37    19    20    1
    38     4     5   ar
    39     5     6   ar
    40    32    33   ar
    41    33    34   ar
    42    41    42   ar
    43    42    37   ar
    44    34    29   ar
    45     6     1   ar
    46    26    22   ar
    47    19    13   ar
    48    11    12    1
@<TRIPOS>MOLECULE
*****
 44 48 0 0 0
SMALL
GASTEIGER

@<TRIPOS>ATOM
      1 C          60.2118   91.4549    4.4608 C.ar    1  UNL1        0.0611
      2 C          61.4399   91.7679    3.6584 C.ar    1  UNL1        0.0112
      3 C          61.3333   92.6098    2.4215 C.ar    1  UNL1        0.0208
      4 C          59.9986   93.1387    1.9870 C.ar    1  UNL1        0.1218
      5 N          58.7705   92.8257    2.7894 N.ar    1  UNL1       -0.2421
      6 C          58.8771   91.9838    4.0263 C.ar    1  UNL1        0.1068
      7 C          59.8920   93.9806    0.7501 C.3     1  UNL1        0.3254
      8 F          60.2876   92.6282    0.2357 F       1  UNL1       -0.1949
      9 F          59.5109   95.1644    1.5887 F       1  UNL1       -0.1949
     10 C          59.7854   94.8225   -0.4867 C.3     1  UNL1        0.1932
     11 O          59.6788   95.6644   -1.7236 O.3     1  UNL1       -0.3755
     12 H          58.7476   95.7396   -1.9842 H       1  UNL1        0.2110
     13 C          61.2752   94.9967   -0.4965 C.ar    1  UNL1        0.0368
     14 C          61.9222   95.9736    0.4401 C.ar    1  UNL1        0.0028
     15 C          63.4120   96.1479    0.4303 C.ar    1  UNL1        0.0295
     16 C          64.2548   95.3453   -0.5160 C.ar    1  UNL1        0.1424
     17 F          65.7447   95.5196   -0.5257 F       1  UNL1       -0.2041
     18 C          63.6079   94.3684   -1.4525 C.ar    1  UNL1        0.0590
     19 C          62.1180   94.1941   -1.4428 C.ar    1  UNL1        0.1408
     20 F          61.4711   93.2173   -2.3793 F       1  UNL1       -0.2043
     21 C          58.2956   94.6482   -0.4770 C.3     1  UNL1        0.1679
     22 N          57.6621   93.5626   -1.2956 N.ar    1  UNL1       -0.2078
     23 C          58.1537   93.0552   -2.6188 C.ar    1  UNL1        0.2216
     24 N          57.2212   91.9728   -3.0757 N.ar    1  UNL1       -0.1048
     25 N          56.1532   91.8113   -2.0349 N.ar    1  UNL1       -0.0226
     26 N          56.4257   92.7938   -0.9347 N.ar    1  UNL1       -0.0428
     27 C          60.4250   89.7712    6.9345 C.1     1  UNL1       -0.0597
     28 C          60.3184   90.6130    5.6976 C.1     1  UNL1       -0.0582
     29 C          60.7448   87.2454   10.6451 C.ar    1  UNL1        0.1391
     30 C          60.4618   86.6003    9.3208 C.ar    1  UNL1        0.0375
     31 C          60.3552   87.4422    8.0840 C.ar    1  UNL1        0.0114
     32 C          60.5316   88.9293    8.1714 C.ar    1  UNL1        0.0422
     33 C          60.8146   89.5744    9.4957 C.ar    1  UNL1        0.0114
     34 C          60.9212   88.7325   10.7325 C.ar    1  UNL1        0.0375
     35 O          60.8513   86.4035   11.8820 O.3     1  UNL1       -0.4706
     36 C          62.1926   85.9169   12.3447 C.3     1  UNL1        0.2320
     37 C          63.1639   82.0689   12.3396 C.ar    1  UNL1        0.0682
     38 C          63.7373   81.9232   10.9612 C.ar    1  UNL1        0.0103
     39 C          63.7958   83.1087   10.0440 C.ar    1  UNL1        0.0005
     40 C          63.2809   84.4399   10.5052 C.ar    1  UNL1       -0.0006
     41 C          62.7075   84.5856   11.8835 C.ar    1  UNL1        0.0218
     42 C          62.6490   83.4002   12.8007 C.ar    1  UNL1        0.0096
     43 N          63.0468   79.6980   14.1739 N.1     1  UNL1       -0.1908
     44 C          63.1053   80.8835   13.2567 C.1     1  UNL1        0.1004
@<TRIPOS>BOND
     1    43    44    3
     2    44    37    1
     3    37    38   ar
     4    38    39   ar
     5    39    40   ar
     6    40    41   ar
     7    41    36    1
     8    36    35    1
     9    35    29    1
    10    29    30   ar
    11    30    31   ar
    12    31    32   ar
    13    32    27    1
    14    27    28    3
    15    28     1    1
    16     1     2   ar
    17     2     3   ar
    18     3     4   ar
    19     4     7    1
    20     7     8    1
    21     7     9    1
    22     7    10    1
    23    10    11    1
    24    10    21    1
    25    21    22    1
    26    22    23   ar
    27    23    24   ar
    28    24    25   ar
    29    25    26   ar
    30    10    13    1
    31    13    14   ar
    32    14    15   ar
    33    15    16   ar
    34    16    17    1
    35    16    18   ar
    36    18    19   ar
    37    19    20    1
    38     4     5   ar
    39     5     6   ar
    40    32    33   ar
    41    33    34   ar
    42    41    42   ar
    43    42    37   ar
    44    34    29   ar
    45     6     1   ar
    46    26    22   ar
    47    19    13   ar
    48    11    12    1
@<TRIPOS>MOLECULE
*****
 44 48 0 0 0
SMALL
GASTEIGER

@<TRIPOS>ATOM
      1 C          61.4976   87.5020    9.4803 C.ar    1  UNL1        0.0611
      2 C          61.9682   86.1126    9.1667 C.ar    1  UNL1        0.0112
      3 C          62.4768   85.2271   10.2655 C.ar    1  UNL1        0.0208
      4 C          62.5148   85.7310   11.6778 C.ar    1  UNL1        0.1218
      5 N          62.0442   87.1203   11.9914 N.ar    1  UNL1       -0.2421
      6 C          61.5356   88.0058   10.8926 C.ar    1  UNL1        0.1068
      7 C          63.0234   84.8455   12.7766 C.3     1  UNL1        0.3254
      8 F          61.7206   85.3682   13.3053 F       1  UNL1       -0.1949
      9 F          64.2392   84.5277   11.9576 F       1  UNL1       -0.1949
     10 C          63.5320   83.9600   13.8753 C.3     1  UNL1        0.1932
     11 O          64.0406   83.0745   14.9740 O.3     1  UNL1       -0.3755
     12 H          64.1818   82.1792   14.6285 H       1  UNL1        0.2110
     13 C          63.4802   85.1154   14.8304 C.ar    1  UNL1        0.0368
     14 C          64.2516   86.3676   14.5354 C.ar    1  UNL1        0.0028
     15 C          64.1999   87.5230   15.4905 C.ar    1  UNL1        0.0295
     16 C          63.3767   87.4263   16.7407 C.ar    1  UNL1        0.1424
     17 F          63.3250   88.5818   17.6959 F       1  UNL1       -0.2041
     18 C          62.6054   86.1742   17.0358 C.ar    1  UNL1        0.0590
     19 C          62.6571   85.0187   16.0807 C.ar    1  UNL1        0.1408
     20 F          61.8857   83.7666   16.3758 F       1  UNL1       -0.2043
     21 C          63.5838   82.8046   12.9202 C.3     1  UNL1        0.1679
     22 N          62.7560   81.5805   13.1782 N.ar    1  UNL1       -0.2078
     23 C          62.9687   80.2274   12.5668 C.ar    1  UNL1        0.2216
     24 N          61.9144   79.3053   13.1036 N.ar    1  UNL1       -0.1048
     25 N          61.0502   80.0886   14.0468 N.ar    1  UNL1       -0.0226
     26 N          61.5703   81.4947   14.0929 N.ar    1  UNL1       -0.0428
     27 C          60.4805   89.2728    7.2827 C.1     1  UNL1       -0.0597
     28 C          60.9891   88.3874    8.3815 C.1     1  UNL1       -0.0582
     29 C          58.9546   91.9291    3.9864 C.ar    1  UNL1        0.1391
     30 C          57.9890   91.2706    4.9266 C.ar    1  UNL1        0.0375
     31 C          58.4976   90.3852    6.0254 C.ar    1  UNL1        0.0114
     32 C          59.9719   90.1583    6.1839 C.ar    1  UNL1        0.0422
     33 C          60.9375   90.8168    5.2437 C.ar    1  UNL1        0.0114
     34 C          60.4288   91.7022    4.1450 C.ar    1  UNL1        0.0375
     35 O          58.4459   92.8145    2.8876 O.3     1  UNL1       -0.4706
     36 C          59.1968   92.9093    1.5926 C.3     1  UNL1        0.2320
     37 C          62.8095   94.4769    1.1018 C.ar    1  UNL1        0.0682
     38 C          62.4872   95.9418    1.1161 C.ar    1  UNL1        0.0103
     39 C          61.0681   96.3958    1.2893 C.ar    1  UNL1        0.0005
     40 C          59.9713   95.3851    1.4481 C.ar    1  UNL1       -0.0006
     41 C          60.2936   93.9202    1.4337 C.ar    1  UNL1        0.0218
     42 C          61.7127   93.4661    1.2606 C.ar    1  UNL1        0.0096
     43 N          65.6477   93.5687    0.7555 N.1     1  UNL1       -0.1908
     44 C          64.2286   94.0228    0.9286 C.1     1  UNL1        0.1004
@<TRIPOS>BOND
     1    43    44    3
     2    44    37    1
     3    37    38   ar
     4    38    39   ar
     5    39    40   ar
     6    40    41   ar
     7    41    36    1
     8    36    35    1
     9    35    29    1
    10    29    30   ar
    11    30    31   ar
    12    31    32   ar
    13    32    27    1
    14    27    28    3
    15    28     1    1
    16     1     2   ar
    17     2     3   ar
    18     3     4   ar
    19     4     7    1
    20     7     8    1
    21     7     9    1
    22     7    10    1
    23    10    11    1
    24    10    21    1
    25    21    22    1
    26    22    23   ar
    27    23    24   ar
    28    24    25   ar
    29    25    26   ar
    30    10    13    1
    31    13    14   ar
    32    14    15   ar
    33    15    16   ar
    34    16    17    1
    35    16    18   ar
    36    18    19   ar
    37    19    20    1
    38     4     5   ar
    39     5     6   ar
    40    32    33   ar
    41    33    34   ar
    42    41    42   ar
    43    42    37   ar
    44    34    29   ar
    45     6     1   ar
    46    26    22   ar
    47    19    13   ar
    48    11    12    1
@<TRIPOS>MOLECULE
*****
 44 48 0 0 0
SMALL
GASTEIGER

@<TRIPOS>ATOM
      1 C          61.3983   87.4663    9.3599 C.ar    1  UNL1        0.0611
      2 C          62.2245   86.2573    9.0349 C.ar    1  UNL1        0.0112
      3 C          62.7065   85.3601   10.1362 C.ar    1  UNL1        0.0208
      4 C          62.3622   85.6720   11.5624 C.ar    1  UNL1        0.1218
      5 N          61.5360   86.8809   11.8874 N.ar    1  UNL1       -0.2421
      6 C          61.0540   87.7782   10.7862 C.ar    1  UNL1        0.1068
      7 C          62.8442   84.7747   12.6637 C.3     1  UNL1        0.3254
      8 F          61.5859   85.3792   13.2125 F       1  UNL1       -0.1949
      9 F          64.0209   84.3755   11.8234 F       1  UNL1       -0.1949
     10 C          63.3262   83.8775   13.7649 C.3     1  UNL1        0.1932
     11 O          63.8083   82.9803   14.8661 O.3     1  UNL1       -0.3755
     12 H          63.8970   82.0748   14.5299 H       1  UNL1        0.2110
     13 C          63.3511   85.0455   14.7057 C.ar    1  UNL1        0.0368
     14 C          64.1323   86.2765   14.3526 C.ar    1  UNL1        0.0028
     15 C          64.1572   87.4445   15.2934 C.ar    1  UNL1        0.0295
     16 C          63.4008   87.3817   16.5872 C.ar    1  UNL1        0.1424
     17 F          63.4256   88.5498   17.5280 F       1  UNL1       -0.2041
     18 C          62.6195   86.1508   16.9402 C.ar    1  UNL1        0.0590
     19 C          62.5947   84.9827   15.9994 C.ar    1  UNL1        0.1408
     20 F          61.8134   83.7519   16.3525 F       1  UNL1       -0.2043
     21 C          63.3014   82.7095   12.8241 C.3     1  UNL1        0.1679
     22 N          62.4948   81.4909   13.1625 N.ar    1  UNL1       -0.2078
     23 C          62.7404   80.1016   12.6532 C.ar    1  UNL1        0.2216
     24 N          61.6984   79.1998   13.2455 N.ar    1  UNL1       -0.1048
     25 N          60.8088   80.0318   14.1209 N.ar    1  UNL1       -0.0226
     26 N          61.3010   81.4477   14.0697 N.ar    1  UNL1       -0.0428
     27 C          60.4343   89.2606    7.1574 C.1     1  UNL1       -0.0597
     28 C          60.9163   88.3635    8.2587 C.1     1  UNL1       -0.0582
     29 C          58.9882   91.9521    3.8536 C.ar    1  UNL1        0.1391
     30 C          58.0041   91.3313    4.8002 C.ar    1  UNL1        0.0375
     31 C          58.4861   90.4341    5.9014 C.ar    1  UNL1        0.0114
     32 C          59.9523   90.1578    6.0561 C.ar    1  UNL1        0.0422
     33 C          60.9365   90.7786    5.1095 C.ar    1  UNL1        0.0114
     34 C          60.4544   91.6757    4.0083 C.ar    1  UNL1        0.0375
     35 O          58.5062   92.8492    2.7523 O.3     1  UNL1       -0.4706
     36 C          59.3311   93.0236    1.5118 C.3     1  UNL1        0.2320
     37 C          57.3561   92.9322   -1.9293 C.ar    1  UNL1        0.0682
     38 C          57.3854   94.3824   -2.3115 C.ar    1  UNL1        0.0103
     39 C          58.0632   95.3796   -1.4193 C.ar    1  UNL1        0.0005
     40 C          58.7118   94.9267   -0.1449 C.ar    1  UNL1       -0.0006
     41 C          58.6825   93.4766    0.2373 C.ar    1  UNL1        0.0218
     42 C          58.0047   92.4793   -0.6549 C.ar    1  UNL1        0.0096
     43 N          56.0004   90.9377   -3.7137 N.1     1  UNL1       -0.1908
     44 C          56.6782   91.9350   -2.8215 C.1     1  UNL1        0.1004
@<TRIPOS>BOND
     1    43    44    3
     2    44    37    1
     3    37    38   ar
     4    38    39   ar
     5    39    40   ar
     6    40    41   ar
     7    41    36    1
     8    36    35    1
     9    35    29    1
    10    29    30   ar
    11    30    31   ar
    12    31    32   ar
    13    32    27    1
    14    27    28    3
    15    28     1    1
    16     1     2   ar
    17     2     3   ar
    18     3     4   ar
    19     4     7    1
    20     7     8    1
    21     7     9    1
    22     7    10    1
    23    10    11    1
    24    10    21    1
    25    21    22    1
    26    22    23   ar
    27    23    24   ar
    28    24    25   ar
    29    25    26   ar
    30    10    13    1
    31    13    14   ar
    32    14    15   ar
    33    15    16   ar
    34    16    17    1
    35    16    18   ar
    36    18    19   ar
    37    19    20    1
    38     4     5   ar
    39     5     6   ar
    40    32    33   ar
    41    33    34   ar
    42    41    42   ar
    43    42    37   ar
    44    34    29   ar
    45     6     1   ar
    46    26    22   ar
    47    19    13   ar
    48    11    12    1
@<TRIPOS>MOLECULE
*****
 44 48 0 0 0
SMALL
GASTEIGER

@<TRIPOS>ATOM
      1 C          61.4672   87.5894    9.4379 C.ar    1  UNL1        0.0611
      2 C          62.1842   88.2020   10.6044 C.ar    1  UNL1        0.0112
      3 C          62.6823   87.3316   11.7198 C.ar    1  UNL1        0.0208
      4 C          62.4636   85.8485   11.6687 C.ar    1  UNL1        0.1218
      5 N          61.7466   85.2359   10.5023 N.ar    1  UNL1       -0.2421
      6 C          61.2484   86.1063    9.3868 C.ar    1  UNL1        0.1068
      7 C          62.9618   84.9780   12.7842 C.3     1  UNL1        0.3254
      8 F          61.6145   85.4380   13.2567 F       1  UNL1       -0.1949
      9 F          64.2260   84.7211   12.0189 F       1  UNL1       -0.1949
     10 C          63.4600   84.1076   13.8995 C.3     1  UNL1        0.1932
     11 O          63.9583   83.2372   15.0149 O.3     1  UNL1       -0.3755
     12 H          64.0826   82.3324   14.6881 H       1  UNL1        0.2110
     13 C          63.4322   85.2839   14.8299 C.ar    1  UNL1        0.0368
     14 C          64.1788   86.5364   14.4779 C.ar    1  UNL1        0.0028
     15 C          64.1509   87.7127   15.4083 C.ar    1  UNL1        0.0295
     16 C          63.3765   87.6365   16.6906 C.ar    1  UNL1        0.1424
     17 F          63.3487   88.8128   17.6210 F       1  UNL1       -0.2041
     18 C          62.6300   86.3840   17.0426 C.ar    1  UNL1        0.0590
     19 C          62.6578   85.2077   16.1123 C.ar    1  UNL1        0.1408
     20 F          61.9112   83.9552   16.4643 F       1  UNL1       -0.2043
     21 C          63.4879   82.9314   12.9692 C.3     1  UNL1        0.1679
     22 N          62.6430   81.7261   13.2585 N.ar    1  UNL1       -0.2078
     23 C          62.8342   80.3557   12.6792 C.ar    1  UNL1        0.2216
     24 N          61.7680   79.4624   13.2406 N.ar    1  UNL1       -0.1048
     25 N          60.9179   80.2806   14.1667 N.ar    1  UNL1       -0.0226
     26 N          61.4586   81.6797   14.1778 N.ar    1  UNL1       -0.0428
     27 C          60.4708   89.3303    7.2071 C.1     1  UNL1       -0.0597
     28 C          60.9690   88.4598    8.3225 C.1     1  UNL1       -0.0582
     29 C          58.9765   91.9417    3.8609 C.ar    1  UNL1        0.1391
     30 C          60.4472   91.6918    4.0177 C.ar    1  UNL1        0.0375
     31 C          60.9452   90.8214    5.1331 C.ar    1  UNL1        0.0114
     32 C          59.9727   90.2008    6.0917 C.ar    1  UNL1        0.0422
     33 C          58.5020   90.4506    5.9349 C.ar    1  UNL1        0.0114
     34 C          58.0039   91.3211    4.8195 C.ar    1  UNL1        0.0375
     35 O          58.4783   92.8122    2.7454 O.3     1  UNL1       -0.4706
     36 C          59.4437   93.3747    1.7447 C.3     1  UNL1        0.2320
     37 C          59.9714   93.4146   -2.1885 C.ar    1  UNL1        0.0682
     38 C          58.6297   92.9369   -2.6594 C.ar    1  UNL1        0.0103
     39 C          57.5594   92.6051   -1.6622 C.ar    1  UNL1        0.0005
     40 C          57.8307   92.7511   -0.1942 C.ar    1  UNL1       -0.0006
     41 C          59.1723   93.2287    0.2766 C.ar    1  UNL1        0.0218
     42 C          60.2427   93.5605   -0.7205 C.ar    1  UNL1        0.0096
     43 N          62.1120   94.0781   -4.1828 N.1     1  UNL1       -0.1908
     44 C          61.0417   93.7463   -3.1857 C.1     1  UNL1        0.1004
@<TRIPOS>BOND
     1    43    44    3
     2    44    37    1
     3    37    38   ar
     4    38    39   ar
     5    39    40   ar
     6    40    41   ar
     7    41    36    1
     8    36    35    1
     9    35    29    1
    10    29    30   ar
    11    30    31   ar
    12    31    32   ar
    13    32    27    1
    14    27    28    3
    15    28     1    1
    16     1     2   ar
    17     2     3   ar
    18     3     4   ar
    19     4     7    1
    20     7     8    1
    21     7     9    1
    22     7    10    1
    23    10    11    1
    24    10    21    1
    25    21    22    1
    26    22    23   ar
    27    23    24   ar
    28    24    25   ar
    29    25    26   ar
    30    10    13    1
    31    13    14   ar
    32    14    15   ar
    33    15    16   ar
    34    16    17    1
    35    16    18   ar
    36    18    19   ar
    37    19    20    1
    38     4     5   ar
    39     5     6   ar
    40    32    33   ar
    41    33    34   ar
    42    41    42   ar
    43    42    37   ar
    44    34    29   ar
    45     6     1   ar
    46    26    22   ar
    47    19    13   ar
    48    11    12    1
@<TRIPOS>MOLECULE
*****
 44 48 0 0 0
SMALL
GASTEIGER

@<TRIPOS>ATOM
      1 C          60.2027   91.5385    4.2698 C.ar    1  UNL1        0.0611
      2 C          58.8573   91.9772    3.7724 C.ar    1  UNL1        0.0112
      3 C          58.7551   92.8493    2.5562 C.ar    1  UNL1        0.0208
      4 C          59.9983   93.2826    1.8375 C.ar    1  UNL1        0.1218
      5 N          61.3437   92.8440    2.3348 N.ar    1  UNL1       -0.2421
      6 C          61.4459   91.9719    3.5510 C.ar    1  UNL1        0.1068
      7 C          59.8960   94.1547    0.6213 C.3     1  UNL1        0.3254
      8 F          60.4069   92.8486    0.0894 F       1  UNL1       -0.1949
      9 F          59.3951   95.2834    1.4728 F       1  UNL1       -0.1949
     10 C          59.7938   95.0268   -0.5948 C.3     1  UNL1        0.1932
     11 O          59.6915   95.8989   -1.8109 O.3     1  UNL1       -0.3755
     12 H          58.7593   95.9991   -2.0595 H       1  UNL1        0.2110
     13 C          61.2866   95.1708   -0.6171 C.ar    1  UNL1        0.0368
     14 C          61.9668   96.0835    0.3598 C.ar    1  UNL1        0.0028
     15 C          63.4597   96.2275    0.3375 C.ar    1  UNL1        0.0295
     16 C          64.2725   95.4587   -0.6617 C.ar    1  UNL1        0.1424
     17 F          65.7654   95.6027   -0.6840 F       1  UNL1       -0.2041
     18 C          63.5924   94.5461   -1.6386 C.ar    1  UNL1        0.0590
     19 C          62.0994   94.4021   -1.6164 C.ar    1  UNL1        0.1408
     20 F          61.4193   93.4894   -2.5933 F       1  UNL1       -0.2043
     21 C          58.3009   94.8829   -0.5725 C.3     1  UNL1        0.1679
     22 N          57.6442   93.7621   -1.3227 N.ar    1  UNL1       -0.2078
     23 C          57.7829   93.4829   -2.7899 C.ar    1  UNL1        0.2216
     24 N          56.9579   92.2721   -3.1114 N.ar    1  UNL1       -0.1048
     25 N          56.3093   91.8031   -1.8428 N.ar    1  UNL1       -0.0226
     26 N          56.7334   92.7239   -0.7374 N.ar    1  UNL1       -0.0428
     27 C          60.4071   89.7944    6.7021 C.1     1  UNL1       -0.0597
     28 C          60.3049   90.6664    5.4860 C.1     1  UNL1       -0.0582
     29 C          60.7136   87.1782   10.3506 C.ar    1  UNL1        0.1391
     30 C          61.1165   88.6211   10.4264 C.ar    1  UNL1        0.0375
     31 C          61.0144   89.4931    9.2102 C.ar    1  UNL1        0.0114
     32 C          60.5093   88.9223    7.9183 C.ar    1  UNL1        0.0422
     33 C          60.1064   87.4794    7.8425 C.ar    1  UNL1        0.0114
     34 C          60.2085   86.6074    9.0587 C.ar    1  UNL1        0.0375
     35 O          60.8158   86.3061   11.5668 O.3     1  UNL1       -0.4706
     36 C          62.0512   85.4886   11.8018 C.3     1  UNL1        0.2320
     37 C          64.2560   87.7227   14.2304 C.ar    1  UNL1        0.0682
     38 C          64.9453   86.6652   15.0406 C.ar    1  UNL1        0.0103
     39 C          64.6700   85.2155   14.7713 C.ar    1  UNL1        0.0005
     40 C          63.7053   84.8233   13.6917 C.ar    1  UNL1       -0.0006
     41 C          63.0160   85.8808   12.8815 C.ar    1  UNL1        0.0218
     42 C          63.2913   87.3305   13.1508 C.ar    1  UNL1        0.0096
     43 N          64.8067   90.6221   14.7691 N.1     1  UNL1       -0.1908
     44 C          64.5313   89.1724   14.4997 C.1     1  UNL1        0.1004
@<TRIPOS>BOND
     1    43    44    3
     2    44    37    1
     3    37    38   ar
     4    38    39   ar
     5    39    40   ar
     6    40    41   ar
     7    41    36    1
     8    36    35    1
     9    35    29    1
    10    29    30   ar
    11    30    31   ar
    12    31    32   ar
    13    32    27    1
    14    27    28    3
    15    28     1    1
    16     1     2   ar
    17     2     3   ar
    18     3     4   ar
    19     4     7    1
    20     7     8    1
    21     7     9    1
    22     7    10    1
    23    10    11    1
    24    10    21    1
    25    21    22    1
    26    22    23   ar
    27    23    24   ar
    28    24    25   ar
    29    25    26   ar
    30    10    13    1
    31    13    14   ar
    32    14    15   ar
    33    15    16   ar
    34    16    17    1
    35    16    18   ar
    36    18    19   ar
    37    19    20    1
    38     4     5   ar
    39     5     6   ar
    40    32    33   ar
    41    33    34   ar
    42    41    42   ar
    43    42    37   ar
    44    34    29   ar
    45     6     1   ar
    46    26    22   ar
    47    19    13   ar
    48    11    12    1
