@<TRIPOS>MOLECULE
*****
 34 38 0 0 0
SMALL
GASTEIGER

@<TRIPOS>ATOM
      1 C          62.6801   86.8496   11.8362 C.2     1  UNL1        0.2506
      2 O          63.4626   87.5031   12.9365 O.2     1  UNL1       -0.2699
      3 N          61.6616   87.6395   11.0690 N.am    1  UNL1       -0.2723
      4 C          60.8791   86.9860    9.9686 C.3     1  UNL1        0.1257
      5 C          59.8606   87.7759    9.2014 C.3     1  UNL1        0.1637
      6 O          59.6246   89.2192    9.5345 O.3     1  UNL1       -0.3502
      7 C          60.4070   89.8727   10.6348 C.3     1  UNL1        0.1622
      8 C          61.4256   89.0829   11.4021 C.3     1  UNL1        0.1097
      9 C          63.6244   81.0761   10.5039 C.3     1  UNL1        0.0311
     10 C          63.3883   82.5195   10.8370 C.ar    1  UNL1       -0.0203
     11 C          63.1988   83.5217    9.7372 C.ar    1  UNL1       -0.0040
     12 C          62.9627   84.9650   10.0703 C.ar    1  UNL1        0.0058
     13 C          62.9162   85.4062   11.5031 C.ar    1  UNL1        0.0729
     14 C          63.1057   84.4040   12.6029 C.ar    1  UNL1        0.1069
     15 C          63.3418   82.9606   12.2699 C.ar    1  UNL1        0.0168
     16 N          63.0592   84.8451   14.0359 N.ar    1  UNL1       -0.1477
     17 N          61.8672   84.7697   14.9434 N.ar    1  UNL1       -0.1447
     18 C          62.2677   85.3171   16.2812 C.ar    1  UNL1        0.1446
     19 C          63.7073   85.7308   16.2006 C.ar    1  UNL1        0.1446
     20 N          64.1964   85.4392   14.8129 N.ar    1  UNL1       -0.1447
     21 C          62.2080   89.7363   12.5023 C.3     1  UNL1        0.0510
     22 C          63.3594   90.6385   12.1702 C.ar    1  UNL1        0.0071
     23 C          64.3775   90.9726   13.2198 C.ar    1  UNL1        0.0011
     24 C          65.5289   91.8748   12.8877 C.ar    1  UNL1        0.0356
     25 C          65.6622   92.4429   11.5059 C.ar    1  UNL1        0.0053
     26 C          64.6442   92.1088   10.4562 C.ar    1  UNL1        0.0294
     27 C          63.4928   91.2066   10.7884 C.ar    1  UNL1        0.1362
     28 F          62.4746   90.8725    9.7386 F       1  UNL1       -0.2045
     29 C          66.5470   92.2089   13.9374 C.ar    1  UNL1        0.1622
     30 N          68.0040   92.2493   13.5832 N.ar    1  UNL1       -0.2250
     31 C          69.0221   92.5834   14.6330 C.ar    1  UNL1        0.1022
     32 C          68.5831   92.8772   16.0369 C.ar    1  UNL1        0.0414
     33 C          67.1260   92.8368   16.3911 C.ar    1  UNL1        0.1022
     34 N          66.1080   92.5027   15.3414 N.ar    1  UNL1       -0.2250
@<TRIPOS>BOND
     1     9    10    1
     2    10    11   ar
     3    11    12   ar
     4    12    13   ar
     5    13     1    1
     6     1     2    2
     7     1     3   am
     8     3     4    1
     9     4     5    1
    10     5     6    1
    11     6     7    1
    12     7     8    1
    13     8    21    1
    14    21    22    1
    15    22    23   ar
    16    23    24   ar
    17    24    29    1
    18    29    30   ar
    19    30    31   ar
    20    31    32   ar
    21    32    33   ar
    22    33    34   ar
    23    24    25   ar
    24    25    26   ar
    25    26    27   ar
    26    27    28    1
    27    13    14   ar
    28    14    16    1
    29    16    17   ar
    30    17    18   ar
    31    18    19   ar
    32    19    20   ar
    33    14    15   ar
    34    15    10   ar
    35     8     3    1
    36    27    22   ar
    37    20    16   ar
    38    34    29   ar
@<TRIPOS>MOLECULE
*****
 34 38 0 0 0
SMALL
GASTEIGER

@<TRIPOS>ATOM
      1 C          62.9940   87.1037   12.2818 C.2     1  UNL1        0.2506
      2 O          63.5656   87.5136   13.6066 O.2     1  UNL1       -0.2699
      3 N          62.3244   88.1214   11.4067 N.am    1  UNL1       -0.2723
      4 C          61.7527   87.7115   10.0818 C.3     1  UNL1        0.1257
      5 C          61.0831   88.7292    9.2067 C.3     1  UNL1        0.1637
      6 O          60.9851   90.1568    9.6564 O.3     1  UNL1       -0.3502
      7 C          61.5567   90.5668   10.9812 C.3     1  UNL1        0.1622
      8 C          62.2264   89.5491   11.8563 C.3     1  UNL1        0.1097
      9 C          63.3859   81.3931   10.4830 C.3     1  UNL1        0.0311
     10 C          63.2879   82.8208   10.9327 C.ar    1  UNL1       -0.0203
     11 C          63.2203   83.9237    9.9183 C.ar    1  UNL1       -0.0040
     12 C          63.1223   85.3513   10.3680 C.ar    1  UNL1        0.0058
     13 C          63.0919   85.6761   11.8321 C.ar    1  UNL1        0.0729
     14 C          63.1595   84.5732   12.8465 C.ar    1  UNL1        0.1069
     15 C          63.2575   83.1455   12.3968 C.ar    1  UNL1        0.0168
     16 N          63.1291   84.8979   14.3106 N.ar    1  UNL1       -0.1477
     17 N          61.9200   84.8587   15.1975 N.ar    1  UNL1       -0.1447
     18 C          62.3460   85.2554   16.5799 C.ar    1  UNL1        0.1446
     19 C          63.8185   85.5398   16.5474 C.ar    1  UNL1        0.1446
     20 N          64.3024   85.3188   15.1449 N.ar    1  UNL1       -0.1447
     21 C          62.7980   89.9590   13.1812 C.3     1  UNL1        0.0510
     22 C          64.1110   90.6819   13.2401 C.ar    1  UNL1        0.0071
     23 C          64.5402   91.5518   12.0961 C.ar    1  UNL1        0.0011
     24 C          65.8532   92.2748   12.1550 C.ar    1  UNL1        0.0356
     25 C          66.7369   92.1278   13.3581 C.ar    1  UNL1        0.0053
     26 C          66.3077   91.2578   14.5021 C.ar    1  UNL1        0.0294
     27 C          64.9947   90.5349   14.4432 C.ar    1  UNL1        0.1362
     28 F          64.5655   89.6649   15.5873 F       1  UNL1       -0.2045
     29 C          66.2824   93.1447   11.0109 C.ar    1  UNL1        0.1622
     30 N          67.3496   92.6722   10.0687 N.ar    1  UNL1       -0.2250
     31 C          67.7788   93.5422    8.9245 C.ar    1  UNL1        0.1022
     32 C          67.1408   94.8847    8.7226 C.ar    1  UNL1        0.0414
     33 C          66.0735   95.3571    9.6649 C.ar    1  UNL1        0.1022
     34 N          65.6444   94.4872   10.8090 N.ar    1  UNL1       -0.2250
@<TRIPOS>BOND
     1     9    10    1
     2    10    11   ar
     3    11    12   ar
     4    12    13   ar
     5    13     1    1
     6     1     2    2
     7     1     3   am
     8     3     4    1
     9     4     5    1
    10     5     6    1
    11     6     7    1
    12     7     8    1
    13     8    21    1
    14    21    22    1
    15    22    23   ar
    16    23    24   ar
    17    24    29    1
    18    29    30   ar
    19    30    31   ar
    20    31    32   ar
    21    32    33   ar
    22    33    34   ar
    23    24    25   ar
    24    25    26   ar
    25    26    27   ar
    26    27    28    1
    27    13    14   ar
    28    14    16    1
    29    16    17   ar
    30    17    18   ar
    31    18    19   ar
    32    19    20   ar
    33    14    15   ar
    34    15    10   ar
    35     8     3    1
    36    27    22   ar
    37    20    16   ar
    38    34    29   ar
@<TRIPOS>MOLECULE
*****
 34 38 0 0 0
SMALL
GASTEIGER

@<TRIPOS>ATOM
      1 C          65.0504   91.3331   12.6911 C.2     1  UNL1        0.2506
      2 O          65.8891   90.8026   13.8159 O.2     1  UNL1       -0.2699
      3 N          63.8653   90.5519   12.2062 N.am    1  UNL1       -0.2723
      4 C          63.0265   91.0823   11.0814 C.3     1  UNL1        0.1257
      5 C          61.8414   90.3011   10.5965 C.3     1  UNL1        0.1637
      6 O          61.4951   88.9894   11.2364 O.3     1  UNL1       -0.3502
      7 C          62.3338   88.4589   12.3611 C.3     1  UNL1        0.1622
      8 C          63.5189   89.2401   12.8461 C.3     1  UNL1        0.1097
      9 C          66.4359   96.5800   10.1317 C.3     1  UNL1        0.0311
     10 C          66.0895   95.2683   10.7715 C.ar    1  UNL1       -0.0203
     11 C          65.2277   94.2817   10.0408 C.ar    1  UNL1       -0.0040
     12 C          64.8813   92.9700   10.6807 C.ar    1  UNL1        0.0058
     13 C          65.3968   92.6448   12.0512 C.ar    1  UNL1        0.0729
     14 C          66.2586   93.6313   12.7819 C.ar    1  UNL1        0.1069
     15 C          66.6050   94.9430   12.1421 C.ar    1  UNL1        0.0168
     16 N          66.7741   93.3062   14.1526 N.ar    1  UNL1       -0.1477
     17 N          68.2119   93.1012   14.5281 N.ar    1  UNL1       -0.1447
     18 C          68.2688   92.7972   15.9959 C.ar    1  UNL1        0.1446
     19 C          66.8662   92.8143   16.5275 C.ar    1  UNL1        0.1446
     20 N          65.9425   93.1289   15.3883 N.ar    1  UNL1       -0.1447
     21 C          64.3576   88.7097   13.9708 C.3     1  UNL1        0.0510
     22 C          63.8845   87.5301   14.7675 C.ar    1  UNL1        0.0071
     23 C          63.8501   86.1674   14.1415 C.ar    1  UNL1        0.0011
     24 C          63.3770   84.9878   14.9382 C.ar    1  UNL1        0.0356
     25 C          62.9383   85.1708   16.3608 C.ar    1  UNL1        0.0053
     26 C          62.9728   86.5335   16.9868 C.ar    1  UNL1        0.0294
     27 C          63.4459   87.7131   16.1902 C.ar    1  UNL1        0.1362
     28 F          63.4803   89.0758   16.8162 F       1  UNL1       -0.2045
     29 C          63.3426   83.6251   14.3121 C.ar    1  UNL1        0.1622
     30 N          64.2666   83.2978   13.1767 N.ar    1  UNL1       -0.2250
     31 C          64.2322   81.9350   12.5507 C.ar    1  UNL1        0.1022
     32 C          63.2737   80.8997   13.0600 C.ar    1  UNL1        0.0414
     33 C          62.3497   81.2271   14.1954 C.ar    1  UNL1        0.1022
     34 N          62.3841   82.5897   14.8214 N.ar    1  UNL1       -0.2250
@<TRIPOS>BOND
     1     9    10    1
     2    10    11   ar
     3    11    12   ar
     4    12    13   ar
     5    13     1    1
     6     1     2    2
     7     1     3   am
     8     3     4    1
     9     4     5    1
    10     5     6    1
    11     6     7    1
    12     7     8    1
    13     8    21    1
    14    21    22    1
    15    22    23   ar
    16    23    24   ar
    17    24    29    1
    18    29    30   ar
    19    30    31   ar
    20    31    32   ar
    21    32    33   ar
    22    33    34   ar
    23    24    25   ar
    24    25    26   ar
    25    26    27   ar
    26    27    28    1
    27    13    14   ar
    28    14    16    1
    29    16    17   ar
    30    17    18   ar
    31    18    19   ar
    32    19    20   ar
    33    14    15   ar
    34    15    10   ar
    35     8     3    1
    36    27    22   ar
    37    20    16   ar
    38    34    29   ar
@<TRIPOS>MOLECULE
*****
 34 38 0 0 0
SMALL
GASTEIGER

@<TRIPOS>ATOM
      1 C          63.5042   87.5751   13.3877 C.2     1  UNL1        0.2506
      2 O          63.5776   88.6892   12.3861 O.2     1  UNL1       -0.2699
      3 N          63.3932   87.8877   14.8505 N.am    1  UNL1       -0.2723
      4 C          63.3198   86.7735   15.8522 C.3     1  UNL1        0.1257
      5 C          63.2088   87.0862   17.3150 C.3     1  UNL1        0.1637
      6 O          63.1711   88.5131   17.7762 O.3     1  UNL1       -0.3502
      7 C          63.2445   89.6272   16.7746 C.3     1  UNL1        0.1622
      8 C          63.3555   89.3146   15.3117 C.3     1  UNL1        0.1097
      9 C          63.6548   81.8677   11.5428 C.3     1  UNL1        0.0311
     10 C          63.6171   83.2946   12.0040 C.ar    1  UNL1       -0.0203
     11 C          64.4370   83.7230   13.1848 C.ar    1  UNL1       -0.0040
     12 C          64.3993   85.1498   13.6460 C.ar    1  UNL1        0.0058
     13 C          63.5418   86.1482   12.9264 C.ar    1  UNL1        0.0729
     14 C          62.7220   85.7198   11.7457 C.ar    1  UNL1        0.1069
     15 C          62.7596   84.2930   11.2844 C.ar    1  UNL1        0.0168
     16 N          61.8644   86.7183   11.0261 N.ar    1  UNL1       -0.1477
     17 N          60.6037   87.3385   11.5512 N.ar    1  UNL1       -0.1447
     18 C          60.0771   88.2753   10.5047 C.ar    1  UNL1        0.1446
     19 C          61.0125   88.2341    9.3328 C.ar    1  UNL1        0.1446
     20 N          62.1171   87.2718    9.6550 N.ar    1  UNL1       -0.1447
     21 C          63.4289   90.4287   14.3101 C.3     1  UNL1        0.0510
     22 C          64.6344   91.3203   14.2670 C.ar    1  UNL1        0.0071
     23 C          65.2616   91.6705   12.9503 C.ar    1  UNL1        0.0011
     24 C          66.4671   92.5621   12.9072 C.ar    1  UNL1        0.0356
     25 C          67.0454   93.1035   14.1809 C.ar    1  UNL1        0.0053
     26 C          66.4182   92.7534   15.4977 C.ar    1  UNL1        0.0294
     27 C          65.2127   91.8618   15.5407 C.ar    1  UNL1        0.1362
     28 F          64.5855   91.5116   16.8576 F       1  UNL1       -0.2045
     29 C          67.0942   92.9123   11.5903 C.ar    1  UNL1        0.1622
     30 N          68.0759   91.9736   10.9539 N.ar    1  UNL1       -0.2250
     31 C          68.7031   92.3237    9.6370 C.ar    1  UNL1        0.1022
     32 C          68.3486   93.6126    8.9566 C.ar    1  UNL1        0.0414
     33 C          67.3668   94.5514    9.5931 C.ar    1  UNL1        0.1022
     34 N          66.7397   94.2012   10.9099 N.ar    1  UNL1       -0.2250
@<TRIPOS>BOND
     1     9    10    1
     2    10    11   ar
     3    11    12   ar
     4    12    13   ar
     5    13     1    1
     6     1     2    2
     7     1     3   am
     8     3     4    1
     9     4     5    1
    10     5     6    1
    11     6     7    1
    12     7     8    1
    13     8    21    1
    14    21    22    1
    15    22    23   ar
    16    23    24   ar
    17    24    29    1
    18    29    30   ar
    19    30    31   ar
    20    31    32   ar
    21    32    33   ar
    22    33    34   ar
    23    24    25   ar
    24    25    26   ar
    25    26    27   ar
    26    27    28    1
    27    13    14   ar
    28    14    16    1
    29    16    17   ar
    30    17    18   ar
    31    18    19   ar
    32    19    20   ar
    33    14    15   ar
    34    15    10   ar
    35     8     3    1
    36    27    22   ar
    37    20    16   ar
    38    34    29   ar
