@<TRIPOS>MOLECULE
*****
 27 29 0 0 0
SMALL
GASTEIGER

@<TRIPOS>ATOM
      1 C          61.7774   86.7619   10.6079 C.3     1  UNL1        0.2337
      2 N          60.9110   87.3244    9.5203 N.ar    1  UNL1       -0.2923
      3 C          60.1850   86.6759    8.3790 C.ar    1  UNL1        0.1796
      4 N          59.4735   87.7507    7.6118 N.ar    1  UNL1       -0.2226
      5 C          59.7598   89.0634    8.2789 C.ar    1  UNL1        0.1148
      6 C          60.6482   88.7999    9.4584 C.ar    1  UNL1        0.0770
      7 C          61.2518   89.7129   10.4841 C.3     1  UNL1        0.1410
      8 N          62.1182   89.1504   11.5717 N.3     1  UNL1       -0.1473
      9 S          62.3810   87.6750   11.6336 S.O2    1  UNL1        0.0628
     10 O          63.1713   88.1305   12.8245 O.2     1  UNL1       -0.1555
     11 O          62.9183   86.3576   12.1091 O.2     1  UNL1       -0.1555
     12 C          62.0403   85.2864   10.6698 C.3     1  UNL1        0.0490
     13 C          63.2110   85.2034    8.3521 C.3     1  UNL1        0.0001
     14 C          63.0392   84.6628    9.7407 C.3     1  UNL1        0.0037
     15 C          63.8662   83.4988   10.2000 C.3     1  UNL1        0.0001
     16 C          62.7219   90.0635   12.5974 C.3     1  UNL1        0.1222
     17 C          63.8235   91.0042   12.2084 C.ar    1  UNL1       -0.0043
     18 C          63.8944   91.5382   10.8084 C.ar    1  UNL1        0.0003
     19 C          64.9961   92.4790   10.4193 C.ar    1  UNL1        0.0369
     20 C          66.0269   92.8857   11.4304 C.ar    1  UNL1        0.1468
     21 C          65.9560   92.3518   12.8302 C.ar    1  UNL1        0.0369
     22 C          64.8543   91.4110   13.2193 C.ar    1  UNL1        0.0003
     23 O          67.1286   93.8264   11.0413 O.3     1  UNL1       -0.4045
     24 C          67.5159   93.9725    9.5996 C.3     1  UNL1        0.5753
     25 F          67.9032   94.1186    8.1578 F       1  UNL1       -0.1328
     26 F          68.2039   92.6405    9.6494 F       1  UNL1       -0.1328
     27 F          66.8279   95.3045    9.5497 F       1  UNL1       -0.1328
@<TRIPOS>BOND
     1    13    14    1
     2    14    15    1
     3    14    12    1
     4    12     1    1
     5     1     2    1
     6     2     3   ar
     7     3     4   ar
     8     4     5   ar
     9     5     6   ar
    10     6     7    1
    11     7     8    1
    12     8    16    1
    13    16    17    1
    14    17    18   ar
    15    18    19   ar
    16    19    20   ar
    17    20    23    1
    18    23    24    1
    19    24    25    1
    20    24    26    1
    21    24    27    1
    22    20    21   ar
    23    21    22   ar
    24     8     9    1
    25     9    10    2
    26     9    11    2
    27     9     1    1
    28     6     2   ar
    29    22    17   ar
@<TRIPOS>MOLECULE
*****
 27 29 0 0 0
SMALL
GASTEIGER

@<TRIPOS>ATOM
      1 C          61.8567   86.7248   10.6907 C.3     1  UNL1        0.2337
      2 N          61.0052   87.3117    9.6042 N.ar    1  UNL1       -0.2923
      3 C          60.2871   86.6880    8.4443 C.ar    1  UNL1        0.1796
      4 N          59.5905   87.7805    7.6887 N.ar    1  UNL1       -0.2226
      5 C          59.8780   89.0795    8.3814 C.ar    1  UNL1        0.1148
      6 C          60.7524   88.7898    9.5653 C.ar    1  UNL1        0.0770
      7 C          61.3510   89.6809   10.6130 C.3     1  UNL1        0.1410
      8 N          62.2025   89.0939   11.6995 N.3     1  UNL1       -0.1473
      9 S          62.4553   87.6160   11.7383 S.O2    1  UNL1        0.0628
     10 O          63.2359   88.0455   12.9451 O.2     1  UNL1       -0.1555
     11 O          62.9792   86.2870   12.1963 O.2     1  UNL1       -0.1555
     12 C          62.1095   85.2467   10.7296 C.3     1  UNL1        0.0490
     13 C          63.2537   85.2058    8.3974 C.3     1  UNL1        0.0001
     14 C          63.0819   84.6267    9.7705 C.3     1  UNL1        0.0037
     15 C          63.8826   83.4276   10.1843 C.3     1  UNL1        0.0001
     16 C          62.8011   89.9851   12.7472 C.3     1  UNL1        0.1222
     17 C          63.8862   90.9526   12.3779 C.ar    1  UNL1       -0.0043
     18 C          64.8985   91.3714   13.4026 C.ar    1  UNL1        0.0003
     19 C          65.9836   92.3389   13.0333 C.ar    1  UNL1        0.0369
     20 C          66.0565   92.8877   11.6392 C.ar    1  UNL1        0.1468
     21 C          65.0444   92.4690   10.6145 C.ar    1  UNL1        0.0369
     22 C          63.9592   91.5014   10.9838 C.ar    1  UNL1        0.0003
     23 O          67.1416   93.8552   11.2699 O.3     1  UNL1       -0.4045
     24 C          66.7913   95.1694   10.6373 C.3     1  UNL1        0.5753
     25 F          66.4410   96.4836   10.0046 F       1  UNL1       -0.1328
     26 F          66.0065   95.5479   11.8582 F       1  UNL1       -0.1328
     27 F          67.5762   94.7908    9.4163 F       1  UNL1       -0.1328
@<TRIPOS>BOND
     1    13    14    1
     2    14    15    1
     3    14    12    1
     4    12     1    1
     5     1     2    1
     6     2     3   ar
     7     3     4   ar
     8     4     5   ar
     9     5     6   ar
    10     6     7    1
    11     7     8    1
    12     8    16    1
    13    16    17    1
    14    17    18   ar
    15    18    19   ar
    16    19    20   ar
    17    20    23    1
    18    23    24    1
    19    24    25    1
    20    24    26    1
    21    24    27    1
    22    20    21   ar
    23    21    22   ar
    24     8     9    1
    25     9    10    2
    26     9    11    2
    27     9     1    1
    28     6     2   ar
    29    22    17   ar
@<TRIPOS>MOLECULE
*****
 27 29 0 0 0
SMALL
GASTEIGER

@<TRIPOS>ATOM
      1 C          62.7148   86.1025   11.7456 C.3     1  UNL1        0.2337
      2 N          63.4257   85.4720   12.9063 N.ar    1  UNL1       -0.2923
      3 C          63.7040   84.0399   13.2550 C.ar    1  UNL1        0.1796
      4 N          64.4614   84.0169   14.5495 N.ar    1  UNL1       -0.2226
      5 C          64.6511   85.4347   15.0009 C.ar    1  UNL1        0.1148
      6 C          64.0110   86.3341   13.9854 C.ar    1  UNL1        0.0770
      7 C          63.8854   87.8266   13.9037 C.3     1  UNL1        0.1410
      8 N          63.1746   88.4570   12.7430 N.3     1  UNL1       -0.1473
      9 S          62.5893   87.5951   11.6640 S.O2    1  UNL1        0.0628
     10 O          62.2154   88.9519   11.1450 O.2     1  UNL1       -0.1555
     11 O          61.8741   87.2042   10.4047 O.2     1  UNL1       -0.1555
     12 C          62.1295   85.2405   10.6665 C.3     1  UNL1        0.0490
     13 C          63.0595   85.2379    8.2407 C.3     1  UNL1        0.0001
     14 C          63.0202   84.6438    9.6175 C.3     1  UNL1        0.0037
     15 C          63.8715   83.4531    9.9451 C.3     1  UNL1        0.0001
     16 C          63.0491   89.9496   12.6614 C.3     1  UNL1        0.1222
     17 C          64.2029   90.8220   13.0584 C.ar    1  UNL1       -0.0043
     18 C          64.7564   91.8218   12.0868 C.ar    1  UNL1        0.0003
     19 C          65.9102   92.6942   12.4838 C.ar    1  UNL1        0.0369
     20 C          66.5106   92.5668   13.8526 C.ar    1  UNL1        0.1468
     21 C          65.9572   91.5671   14.8242 C.ar    1  UNL1        0.0369
     22 C          64.8033   90.6946   14.4271 C.ar    1  UNL1        0.0003
     23 O          67.6644   93.4392   14.2496 O.3     1  UNL1       -0.4045
     24 C          68.5681   93.0227   15.3721 C.3     1  UNL1        0.5753
     25 F          69.4718   92.6063   16.4945 F       1  UNL1       -0.1328
     26 F          67.7014   93.7655   16.3453 F       1  UNL1       -0.1328
     27 F          69.4347   92.2800   14.3988 F       1  UNL1       -0.1328
@<TRIPOS>BOND
     1    13    14    1
     2    14    15    1
     3    14    12    1
     4    12     1    1
     5     1     2    1
     6     2     3   ar
     7     3     4   ar
     8     4     5   ar
     9     5     6   ar
    10     6     7    1
    11     7     8    1
    12     8    16    1
    13    16    17    1
    14    17    18   ar
    15    18    19   ar
    16    19    20   ar
    17    20    23    1
    18    23    24    1
    19    24    25    1
    20    24    26    1
    21    24    27    1
    22    20    21   ar
    23    21    22   ar
    24     8     9    1
    25     9    10    2
    26     9    11    2
    27     9     1    1
    28     6     2   ar
    29    22    17   ar
@<TRIPOS>MOLECULE
*****
 27 29 0 0 0
SMALL
GASTEIGER

@<TRIPOS>ATOM
      1 C          62.7079   86.1778   11.8141 C.3     1  UNL1        0.2337
      2 N          63.5417   85.6568   12.9469 N.ar    1  UNL1       -0.2923
      3 C          63.9719   84.2694   13.3211 C.ar    1  UNL1        0.1796
      4 N          64.8035   84.3620   14.5660 N.ar    1  UNL1       -0.2226
      5 C          64.8872   85.8065   14.9612 C.ar    1  UNL1        0.1148
      6 C          64.1074   86.6068   13.9605 C.ar    1  UNL1        0.0770
      7 C          63.8392   88.0778   13.8414 C.3     1  UNL1        0.1410
      8 N          63.0054   88.5988   12.7085 N.3     1  UNL1       -0.1473
      9 S          62.4398   87.6489   11.6949 S.O2    1  UNL1        0.0628
     10 O          61.9114   88.9465   11.1591 O.2     1  UNL1       -0.1555
     11 O          61.6906   87.1495   10.4951 O.2     1  UNL1       -0.1555
     12 C          62.1421   85.2278   10.8003 C.3     1  UNL1        0.0490
     13 C          63.0848   85.2705    8.3798 C.3     1  UNL1        0.0001
     14 C          63.0302   84.6443    9.7417 C.3     1  UNL1        0.0037
     15 C          63.8637   83.4346   10.0450 C.3     1  UNL1        0.0001
     16 C          62.7374   90.0699   12.5894 C.3     1  UNL1        0.1222
     17 C          63.8513   91.0087   12.2319 C.ar    1  UNL1       -0.0043
     18 C          63.9435   91.5691   10.8435 C.ar    1  UNL1        0.0003
     19 C          65.0575   92.5078   10.4860 C.ar    1  UNL1        0.0369
     20 C          66.0794   92.8862   11.5170 C.ar    1  UNL1        0.1468
     21 C          65.9872   92.3258   12.9052 C.ar    1  UNL1        0.0369
     22 C          64.8732   91.3870   13.2627 C.ar    1  UNL1        0.0003
     23 O          67.1933   93.8249   11.1595 O.3     1  UNL1       -0.4045
     24 C          67.5106   94.0982    9.7191 C.3     1  UNL1        0.5753
     25 F          67.8280   94.3715    8.2787 F       1  UNL1       -0.1328
     26 F          66.7793   95.4050    9.8059 F       1  UNL1       -0.1328
     27 F          68.2420   92.7915    9.6323 F       1  UNL1       -0.1328
@<TRIPOS>BOND
     1    13    14    1
     2    14    15    1
     3    14    12    1
     4    12     1    1
     5     1     2    1
     6     2     3   ar
     7     3     4   ar
     8     4     5   ar
     9     5     6   ar
    10     6     7    1
    11     7     8    1
    12     8    16    1
    13    16    17    1
    14    17    18   ar
    15    18    19   ar
    16    19    20   ar
    17    20    23    1
    18    23    24    1
    19    24    25    1
    20    24    26    1
    21    24    27    1
    22    20    21   ar
    23    21    22   ar
    24     8     9    1
    25     9    10    2
    26     9    11    2
    27     9     1    1
    28     6     2   ar
    29    22    17   ar
@<TRIPOS>MOLECULE
*****
 27 29 0 0 0
SMALL
GASTEIGER

@<TRIPOS>ATOM
      1 C          62.7113   86.2447   11.6973 C.3     1  UNL1        0.2337
      2 N          63.4413   85.6062   12.8416 N.ar    1  UNL1       -0.2923
      3 C          63.7361   84.1723   13.1690 C.ar    1  UNL1        0.1796
      4 N          64.5089   84.1399   14.4542 N.ar    1  UNL1       -0.2226
      5 C          64.6917   85.5536   14.9210 C.ar    1  UNL1        0.1148
      6 C          64.0318   86.4598   13.9244 C.ar    1  UNL1        0.0770
      7 C          63.8924   87.9521   13.8629 C.3     1  UNL1        0.1410
      8 N          63.1624   88.5906   12.7186 N.3     1  UNL1       -0.1473
      9 S          62.5719   87.7370   11.6359 S.O2    1  UNL1        0.0628
     10 O          62.1801   89.0968   11.1383 O.2     1  UNL1       -0.1555
     11 O          61.8453   87.3555   10.3802 O.2     1  UNL1       -0.1555
     12 C          62.1207   85.3911   10.6144 C.3     1  UNL1        0.0490
     13 C          63.8522   83.5543    9.9997 C.3     1  UNL1        0.0001
     14 C          63.0152   84.7348    9.6049 C.3     1  UNL1        0.0037
     15 C          63.0728   85.2591    8.2007 C.3     1  UNL1        0.0001
     16 C          63.0230   90.0829   12.6572 C.3     1  UNL1        0.1222
     17 C          64.1498   90.9608   13.1151 C.ar    1  UNL1       -0.0043
     18 C          64.5246   91.0041   14.5670 C.ar    1  UNL1        0.0003
     19 C          65.6513   91.8820   15.0249 C.ar    1  UNL1        0.0369
     20 C          66.4033   92.7167   14.0309 C.ar    1  UNL1        0.1468
     21 C          66.0286   92.6735   12.5792 C.ar    1  UNL1        0.0369
     22 C          64.9018   91.7955   12.1213 C.ar    1  UNL1        0.0003
     23 O          67.5300   93.5946   14.4889 O.3     1  UNL1       -0.4045
     24 C          68.5149   93.0851   15.4991 C.3     1  UNL1        0.5753
     25 F          69.4998   92.5756   16.5092 F       1  UNL1       -0.1328
     26 F          68.5157   94.4247   16.1740 F       1  UNL1       -0.1328
     27 F          68.5142   91.7455   14.8241 F       1  UNL1       -0.1328
@<TRIPOS>BOND
     1    13    14    1
     2    14    15    1
     3    14    12    1
     4    12     1    1
     5     1     2    1
     6     2     3   ar
     7     3     4   ar
     8     4     5   ar
     9     5     6   ar
    10     6     7    1
    11     7     8    1
    12     8    16    1
    13    16    17    1
    14    17    18   ar
    15    18    19   ar
    16    19    20   ar
    17    20    23    1
    18    23    24    1
    19    24    25    1
    20    24    26    1
    21    24    27    1
    22    20    21   ar
    23    21    22   ar
    24     8     9    1
    25     9    10    2
    26     9    11    2
    27     9     1    1
    28     6     2   ar
    29    22    17   ar
@<TRIPOS>MOLECULE
*****
 27 29 0 0 0
SMALL
GASTEIGER

@<TRIPOS>ATOM
      1 C          61.8843   86.7804   10.9393 C.3     1  UNL1        0.2337
      2 N          62.6499   85.9532   11.9291 N.ar    1  UNL1       -0.2923
      3 C          62.7902   84.4698   12.1018 C.ar    1  UNL1        0.1796
      4 N          63.6932   84.2231   13.2739 N.ar    1  UNL1       -0.2226
      5 C          64.1109   85.5540   13.8255 C.ar    1  UNL1        0.1148
      6 C          63.4661   86.6233   12.9944 C.ar    1  UNL1        0.0770
      7 C          63.5167   88.1205   13.0699 C.3     1  UNL1        0.1410
      8 N          62.7511   88.9477   12.0802 N.3     1  UNL1       -0.1473
      9 S          61.9349   88.2777   11.0149 S.O2    1  UNL1        0.0628
     10 O          61.6701   89.7157   10.6801 O.2     1  UNL1       -0.1555
     11 O          61.0267   88.1070    9.8333 O.2     1  UNL1       -0.1555
     12 C          61.0680   86.1104    9.8740 C.3     1  UNL1        0.0490
     13 C          60.8727   85.6575    7.3232 C.3     1  UNL1        0.0001
     14 C          61.7039   85.7305    8.5697 C.3     1  UNL1        0.0037
     15 C          63.1710   85.4235    8.5118 C.3     1  UNL1        0.0001
     16 C          62.8017   90.4450   12.1558 C.3     1  UNL1        0.1222
     17 C          64.0548   91.1308   12.6134 C.ar    1  UNL1       -0.0043
     18 C          64.8095   92.0212   11.6711 C.ar    1  UNL1        0.0003
     19 C          66.0626   92.7070   12.1287 C.ar    1  UNL1        0.0369
     20 C          66.5610   92.5024   13.5287 C.ar    1  UNL1        0.1468
     21 C          65.8064   91.6122   14.4709 C.ar    1  UNL1        0.0369
     22 C          64.5533   90.9263   14.0132 C.ar    1  UNL1        0.0003
     23 O          67.8141   93.1882   13.9863 O.3     1  UNL1       -0.4045
     24 C          68.4697   92.7741   15.2703 C.3     1  UNL1        0.5753
     25 F          69.1252   92.3599   16.5543 F       1  UNL1       -0.1328
     26 F          67.4454   93.5505   16.0437 F       1  UNL1       -0.1328
     27 F          69.4939   91.9976   14.4969 F       1  UNL1       -0.1328
@<TRIPOS>BOND
     1    13    14    1
     2    14    15    1
     3    14    12    1
     4    12     1    1
     5     1     2    1
     6     2     3   ar
     7     3     4   ar
     8     4     5   ar
     9     5     6   ar
    10     6     7    1
    11     7     8    1
    12     8    16    1
    13    16    17    1
    14    17    18   ar
    15    18    19   ar
    16    19    20   ar
    17    20    23    1
    18    23    24    1
    19    24    25    1
    20    24    26    1
    21    24    27    1
    22    20    21   ar
    23    21    22   ar
    24     8     9    1
    25     9    10    2
    26     9    11    2
    27     9     1    1
    28     6     2   ar
    29    22    17   ar
@<TRIPOS>MOLECULE
*****
 27 29 0 0 0
SMALL
GASTEIGER

@<TRIPOS>ATOM
      1 C          63.6048   86.2628   13.2762 C.3     1  UNL1        0.2337
      2 N          62.8099   86.1482   12.0094 N.ar    1  UNL1       -0.2923
      3 C          62.3478   84.9604   11.2184 C.ar    1  UNL1        0.1796
      4 N          61.5834   85.4639   10.0301 N.ar    1  UNL1       -0.2226
      5 C          61.5729   86.9628   10.0866 C.ar    1  UNL1        0.1148
      6 C          62.3310   87.3857   11.3100 C.ar    1  UNL1        0.0770
      7 C          62.6470   88.7378   11.8774 C.3     1  UNL1        0.1410
      8 N          63.4420   88.8524   13.1442 N.3     1  UNL1       -0.1473
      9 S          63.9209   87.6149   13.8436 S.O2    1  UNL1        0.0628
     10 O          64.4695   88.6638   14.7651 O.2     1  UNL1       -0.1555
     11 O          64.5903   86.7416   14.8631 O.2     1  UNL1       -0.1555
     12 C          64.0838   85.0253   13.9757 C.3     1  UNL1        0.0490
     13 C          62.9832   82.6721   13.9429 C.3     1  UNL1        0.0001
     14 C          63.0922   84.0471   14.5325 C.3     1  UNL1        0.0037
     15 C          62.2097   84.4438   15.6787 C.3     1  UNL1        0.0001
     16 C          63.7580   90.2045   13.7116 C.3     1  UNL1        0.1222
     17 C          64.6566   91.1417   12.9604 C.ar    1  UNL1       -0.0043
     18 C          65.9321   91.6216   13.5870 C.ar    1  UNL1        0.0003
     19 C          66.8307   92.5588   12.8358 C.ar    1  UNL1        0.0369
     20 C          66.4536   93.0160   11.4578 C.ar    1  UNL1        0.1468
     21 C          65.1782   92.5361   10.8311 C.ar    1  UNL1        0.0369
     22 C          64.2796   91.5989   11.5824 C.ar    1  UNL1        0.0003
     23 O          67.3522   93.9532   10.7065 O.3     1  UNL1       -0.4045
     24 C          67.8777   93.5669    9.3557 C.3     1  UNL1        0.5753
     25 F          68.4033   93.1807    8.0050 F       1  UNL1       -0.1328
     26 F          67.3371   94.8424    8.7807 F       1  UNL1       -0.1328
     27 F          68.4184   92.2914    9.9308 F       1  UNL1       -0.1328
@<TRIPOS>BOND
     1    13    14    1
     2    14    15    1
     3    14    12    1
     4    12     1    1
     5     1     2    1
     6     2     3   ar
     7     3     4   ar
     8     4     5   ar
     9     5     6   ar
    10     6     7    1
    11     7     8    1
    12     8    16    1
    13    16    17    1
    14    17    18   ar
    15    18    19   ar
    16    19    20   ar
    17    20    23    1
    18    23    24    1
    19    24    25    1
    20    24    26    1
    21    24    27    1
    22    20    21   ar
    23    21    22   ar
    24     8     9    1
    25     9    10    2
    26     9    11    2
    27     9     1    1
    28     6     2   ar
    29    22    17   ar
@<TRIPOS>MOLECULE
*****
 27 29 0 0 0
SMALL
GASTEIGER

@<TRIPOS>ATOM
      1 C          61.7826   86.8260   11.1574 C.3     1  UNL1        0.2337
      2 N          62.6103   85.8943   11.9921 N.ar    1  UNL1       -0.2923
      3 C          62.7554   84.4013   11.9852 C.ar    1  UNL1        0.1796
      4 N          63.7352   84.0260   13.0571 N.ar    1  UNL1       -0.2226
      5 C          64.1957   85.2869   13.7264 C.ar    1  UNL1        0.1148
      6 C          63.5004   86.4416   13.0682 C.ar    1  UNL1        0.0770
      7 C          63.5629   87.9207   13.3097 C.3     1  UNL1        0.1410
      8 N          62.7351   88.8525   12.4751 N.3     1  UNL1       -0.1473
      9 S          61.8450   88.3052   11.3990 S.O2    1  UNL1        0.0628
     10 O          61.5645   89.7711   11.2486 O.2     1  UNL1       -0.1555
     11 O          60.8574   88.2669   10.2706 O.2     1  UNL1       -0.1555
     12 C          60.8924   86.2788   10.0812 C.3     1  UNL1        0.0490
     13 C          60.5653   85.9380    7.5265 C.3     1  UNL1        0.0001
     14 C          61.4596   85.9564    8.7306 C.3     1  UNL1        0.0037
     15 C          62.9211   85.6522    8.5840 C.3     1  UNL1        0.0001
     16 C          62.7976   90.3316   12.7166 C.3     1  UNL1        0.1222
     17 C          63.9925   91.1160   12.2617 C.ar    1  UNL1       -0.0043
     18 C          64.0759   91.6016   10.8449 C.ar    1  UNL1        0.0003
     19 C          65.2709   92.3860   10.3899 C.ar    1  UNL1        0.0369
     20 C          66.3824   92.6847   11.3519 C.ar    1  UNL1        0.1468
     21 C          66.2991   92.1991   12.7686 C.ar    1  UNL1        0.0369
     22 C          65.1041   91.4147   13.2235 C.ar    1  UNL1        0.0003
     23 O          67.5774   93.4690   10.8969 O.3     1  UNL1       -0.4045
     24 C          68.3803   92.9978    9.7208 C.3     1  UNL1        0.5753
     25 F          69.1833   92.5267    8.5447 F       1  UNL1       -0.1328
     26 F          68.4008   91.6104   10.2906 F       1  UNL1       -0.1328
     27 F          68.3599   94.3853    9.1510 F       1  UNL1       -0.1328
@<TRIPOS>BOND
     1    13    14    1
     2    14    15    1
     3    14    12    1
     4    12     1    1
     5     1     2    1
     6     2     3   ar
     7     3     4   ar
     8     4     5   ar
     9     5     6   ar
    10     6     7    1
    11     7     8    1
    12     8    16    1
    13    16    17    1
    14    17    18   ar
    15    18    19   ar
    16    19    20   ar
    17    20    23    1
    18    23    24    1
    19    24    25    1
    20    24    26    1
    21    24    27    1
    22    20    21   ar
    23    21    22   ar
    24     8     9    1
    25     9    10    2
    26     9    11    2
    27     9     1    1
    28     6     2   ar
    29    22    17   ar
@<TRIPOS>MOLECULE
*****
 27 29 0 0 0
SMALL
GASTEIGER

@<TRIPOS>ATOM
      1 C          65.2503   92.6199   11.9369 C.3     1  UNL1        0.2337
      2 N          65.9070   92.7934   13.2742 N.ar    1  UNL1       -0.2923
      3 C          66.8746   93.8159   13.7921 C.ar    1  UNL1        0.1796
      4 N          67.1855   93.4782   15.2202 N.ar    1  UNL1       -0.2226
      5 C          66.4101   92.2471   15.5849 C.ar    1  UNL1        0.1148
      6 C          65.6199   91.8238   14.3822 C.ar    1  UNL1        0.0770
      7 C          64.6760   90.6808   14.1528 C.3     1  UNL1        0.1410
      8 N          64.0193   90.5074   12.8154 N.3     1  UNL1       -0.1473
      9 S          64.3064   91.4768   11.7075 S.O2    1  UNL1        0.0628
     10 O          63.3464   90.5599   11.0090 O.2     1  UNL1       -0.1555
     11 O          64.2602   92.1280   10.3569 O.2     1  UNL1       -0.1555
     12 C          65.5374   93.5894   10.8288 C.3     1  UNL1        0.0490
     13 C          67.4186   94.8885    9.5947 C.3     1  UNL1        0.0001
     14 C          66.8927   93.6145   10.1866 C.3     1  UNL1        0.0037
     15 C          67.7220   92.3657   10.1362 C.3     1  UNL1        0.0001
     16 C          63.0754   89.3643   12.5860 C.3     1  UNL1        0.1222
     17 C          63.4270   87.9913   13.0773 C.ar    1  UNL1       -0.0043
     18 C          64.2242   87.8267   14.3372 C.ar    1  UNL1        0.0003
     19 C          64.5757   86.4538   14.8285 C.ar    1  UNL1        0.0369
     20 C          64.1300   85.2452   14.0597 C.ar    1  UNL1        0.1468
     21 C          63.3328   85.4097   12.7998 C.ar    1  UNL1        0.0369
     22 C          62.9813   86.7828   12.3086 C.ar    1  UNL1        0.0003
     23 O          64.4815   83.8723   14.5509 O.3     1  UNL1       -0.4045
     24 C          63.4673   82.7692   14.4839 C.3     1  UNL1        0.5753
     25 F          62.4530   81.6661   14.4168 F       1  UNL1       -0.1328
     26 F          62.7240   83.3827   15.6332 F       1  UNL1       -0.1328
     27 F          64.2106   82.1556   13.3345 F       1  UNL1       -0.1328
@<TRIPOS>BOND
     1    13    14    1
     2    14    15    1
     3    14    12    1
     4    12     1    1
     5     1     2    1
     6     2     3   ar
     7     3     4   ar
     8     4     5   ar
     9     5     6   ar
    10     6     7    1
    11     7     8    1
    12     8    16    1
    13    16    17    1
    14    17    18   ar
    15    18    19   ar
    16    19    20   ar
    17    20    23    1
    18    23    24    1
    19    24    25    1
    20    24    26    1
    21    24    27    1
    22    20    21   ar
    23    21    22   ar
    24     8     9    1
    25     9    10    2
    26     9    11    2
    27     9     1    1
    28     6     2   ar
    29    22    17   ar
