@<TRIPOS>MOLECULE
*****
 45 49 0 0 0
SMALL
GASTEIGER

@<TRIPOS>ATOM
      1 C          64.5392   86.6040   14.0490 C.3     1  UNL1        0.1245
      2 N          64.0741   87.2026   15.3434 N.am    1  UNL1       -0.2735
      3 C          63.7552   88.6662   15.4210 C.2     1  UNL1        0.2492
      4 O          63.2901   89.2649   16.7154 O.2     1  UNL1       -0.2699
      5 C          63.9013   89.5313   14.2043 C.ar    1  UNL1        0.0567
      6 C          63.0595   89.2677   12.9911 C.ar    1  UNL1        0.0063
      7 C          63.2056   90.1327   11.7745 C.ar    1  UNL1        0.0225
      8 C          64.1936   91.2614   11.7710 C.ar    1  UNL1        0.1202
      9 N          64.5561   92.2747   10.7260 N.ar    1  UNL1       -0.1946
     10 C          65.6220   93.1646   11.2935 C.ar    1  UNL1        0.2925
     11 O          65.9181   92.7013   12.6891 O.2     1  UNL1       -0.4237
     12 C          65.0353   91.5251   12.9842 C.ar    1  UNL1        0.1662
     13 C          64.8892   90.6600   14.2008 C.ar    1  UNL1        0.0437
     14 N          66.2768   94.3158   10.5890 N.pl3   1  UNL1       -0.2585
     15 C          66.1522   95.7037   11.1442 C.3     1  UNL1        0.1272
     16 C          66.8069   96.8548   10.4398 C.3     1  UNL1        0.1637
     17 O          67.5862   96.6180    9.1803 O.3     1  UNL1       -0.3501
     18 C          67.7108   95.2301    8.6250 C.3     1  UNL1        0.1637
     19 C          67.0560   94.0790    9.3294 C.3     1  UNL1        0.1272
     20 C          63.9280   86.3376   16.5601 C.3     1  UNL1        0.0937
     21 C          61.3620   85.9435   16.6627 C.3     1  UNL1        0.0018
     22 C          62.6429   86.3423   17.3338 C.3     1  UNL1        0.0199
     23 C          62.6387   86.7459   18.7785 C.3     1  UNL1        0.0018
     24 C          64.1616   85.1960   13.6954 C.3     1  UNL1        0.1484
     25 O          65.1653   84.0910   13.8418 O.3     1  UNL1       -0.3810
     26 H          66.0009   84.4551   14.1738 H       1  UNL1        0.2105
     27 C          62.7802   84.8930   13.1954 C.3     1  UNL1        0.1075
     28 N          62.1772   85.7284   12.1051 N.am    1  UNL1       -0.2695
     29 C          62.5362   85.4650   10.6728 C.2     1  UNL1        0.4020
     30 O          63.4982   84.3660   10.3306 O.2     1  UNL1       -0.2264
     31 H          61.5458   86.4497   12.3297 H       1  UNL1        0.1528
     32 O          61.9332   86.3003    9.5826 O.3     1  UNL1       -0.4291
     33 C          60.5054   86.7486    9.6839 C.3     1  UNL1        0.2447
     34 C          60.1799   88.0876   10.2767 C.ar    1  UNL1        0.0714
     35 C          59.6942   88.3389   11.6734 C.ar    1  UNL1        0.1053
     36 N          59.4972   89.8169   11.8368 N.ar    1  UNL1       -0.2350
     37 C          59.8610   90.4790   10.5410 C.ar    1  UNL1        0.1343
     38 S          60.2830   89.4103    9.5768 S.2     1  UNL1       -0.0652
     39 C          62.0018   83.7547   13.7855 C.3     1  UNL1        0.0485
     40 C          62.2248   82.3568   13.2894 C.ar    1  UNL1       -0.0204
     41 C          62.6197   82.1218   11.8616 C.ar    1  UNL1       -0.0042
     42 C          62.8427   80.7238   11.3655 C.ar    1  UNL1       -0.0003
     43 C          62.6708   79.5610   12.2972 C.ar    1  UNL1       -0.0000
     44 C          62.2759   79.7960   13.7251 C.ar    1  UNL1       -0.0003
     45 C          62.0529   81.1939   14.2212 C.ar    1  UNL1       -0.0042
@<TRIPOS>BOND
     1    21    22    1
     2    22    23    1
     3    22    20    1
     4    20     2    1
     5     2     1    1
     6     1    24    1
     7    24    25    1
     8    24    27    1
     9    27    39    1
    10    39    40    1
    11    40    41   ar
    12    41    42   ar
    13    42    43   ar
    14    43    44   ar
    15    44    45   ar
    16    27    28    1
    17    28    29   am
    18    29    30    2
    19    29    32    1
    20    32    33    1
    21    33    34    1
    22    34    35   ar
    23    35    36   ar
    24    36    37   ar
    25    37    38   ar
    26     2     3   am
    27     3     4    2
    28     3     5    1
    29     5     6   ar
    30     6     7   ar
    31     7     8   ar
    32     8     9   ar
    33     9    10   ar
    34    10    14    1
    35    14    15    1
    36    15    16    1
    37    16    17    1
    38    17    18    1
    39    18    19    1
    40    10    11   ar
    41    11    12   ar
    42    12    13   ar
    43    45    40   ar
    44    38    34   ar
    45    13     5   ar
    46    12     8   ar
    47    19    14    1
    48    25    26    1
    49    28    31    1
@<TRIPOS>MOLECULE
*****
 45 49 0 0 0
SMALL
GASTEIGER

@<TRIPOS>ATOM
      1 C          60.4442   90.0394    9.2091 C.3     1  UNL1        0.1245
      2 N          59.8795   88.6838    8.9033 N.am    1  UNL1       -0.2735
      3 C          59.2385   88.4210    7.5729 C.2     1  UNL1        0.2492
      4 O          58.6738   87.0654    7.2671 O.2     1  UNL1       -0.2699
      5 C          59.1621   89.5139    6.5482 C.ar    1  UNL1        0.0567
      6 C          57.8459   90.1654    6.2431 C.ar    1  UNL1        0.0063
      7 C          57.7696   91.2581    5.2185 C.ar    1  UNL1        0.0225
      8 C          59.0095   91.6994    4.4989 C.ar    1  UNL1        0.1202
      9 N          59.2417   92.7432    3.4468 N.ar    1  UNL1       -0.1946
     10 C          60.7014   92.7367    3.1016 C.ar    1  UNL1        0.2925
     11 O          61.3714   91.6890    3.9404 O.2     1  UNL1       -0.4237
     12 C          60.3257   91.0479    4.8039 C.ar    1  UNL1        0.1662
     13 C          60.4020   89.9552    5.8286 C.ar    1  UNL1        0.0437
     14 N          61.3733   93.6224    2.0945 N.pl3   1  UNL1       -0.2585
     15 C          62.8325   93.4458    1.7957 C.3     1  UNL1        0.1272
     16 C          63.5044   94.3315    0.7886 C.3     1  UNL1        0.1637
     17 O          62.7170   95.3937    0.0804 O.3     1  UNL1       -0.3501
     18 C          61.2577   95.5703    0.3793 C.3     1  UNL1        0.1637
     19 C          60.5858   94.6847    1.3863 C.3     1  UNL1        0.1272
     20 C          59.9558   87.5910    9.9280 C.3     1  UNL1        0.0937
     21 C          61.5011   85.9089   11.1660 C.3     1  UNL1        0.0018
     22 C          61.1025   86.6241    9.9093 C.3     1  UNL1        0.0199
     23 C          61.8506   86.3725    8.6336 C.3     1  UNL1        0.0018
     24 C          61.0228   90.3227   10.5637 C.3     1  UNL1        0.1484
     25 O          60.1137   90.5812   11.7285 O.3     1  UNL1       -0.3810
     26 H          59.1904   90.5285   11.4359 H       1  UNL1        0.2105
     27 C          62.5105   90.3475   10.7535 C.3     1  UNL1        0.1075
     28 N          63.2150   89.1483   11.3154 N.am    1  UNL1       -0.2695
     29 C          63.1218   88.8421   12.7809 C.2     1  UNL1        0.4020
     30 O          62.3242   89.7351   13.6844 O.2     1  UNL1       -0.2264
     31 H          63.7385   88.5622   10.7224 H       1  UNL1        0.1528
     32 O          63.8263   87.6430   13.3428 O.3     1  UNL1       -0.4291
     33 C          64.3733   87.6804   14.7390 C.3     1  UNL1        0.2447
     34 C          63.6372   86.9944   15.8516 C.ar    1  UNL1        0.0714
     35 C          63.3023   85.5338   15.9181 C.ar    1  UNL1        0.1053
     36 N          62.5649   85.2852   17.2004 N.ar    1  UNL1       -0.2350
     37 C          62.4442   86.5922   17.9265 C.ar    1  UNL1        0.1343
     38 S          63.1069   87.6485   17.0928 S.2     1  UNL1       -0.0652
     39 C          63.2938   91.5714   10.3815 C.3     1  UNL1        0.0485
     40 C          64.5426   91.9206   11.1355 C.ar    1  UNL1       -0.0204
     41 C          65.7794   92.3276   10.3908 C.ar    1  UNL1       -0.0042
     42 C          67.0282   92.6768   11.1449 C.ar    1  UNL1       -0.0003
     43 C          67.0401   92.6190   12.6437 C.ar    1  UNL1       -0.0000
     44 C          65.8033   92.2120   13.3884 C.ar    1  UNL1       -0.0003
     45 C          64.5546   91.8628   12.6344 C.ar    1  UNL1       -0.0042
@<TRIPOS>BOND
     1    21    22    1
     2    22    23    1
     3    22    20    1
     4    20     2    1
     5     2     1    1
     6     1    24    1
     7    24    25    1
     8    24    27    1
     9    27    39    1
    10    39    40    1
    11    40    41   ar
    12    41    42   ar
    13    42    43   ar
    14    43    44   ar
    15    44    45   ar
    16    27    28    1
    17    28    29   am
    18    29    30    2
    19    29    32    1
    20    32    33    1
    21    33    34    1
    22    34    35   ar
    23    35    36   ar
    24    36    37   ar
    25    37    38   ar
    26     2     3   am
    27     3     4    2
    28     3     5    1
    29     5     6   ar
    30     6     7   ar
    31     7     8   ar
    32     8     9   ar
    33     9    10   ar
    34    10    14    1
    35    14    15    1
    36    15    16    1
    37    16    17    1
    38    17    18    1
    39    18    19    1
    40    10    11   ar
    41    11    12   ar
    42    12    13   ar
    43    45    40   ar
    44    38    34   ar
    45    13     5   ar
    46    12     8   ar
    47    19    14    1
    48    25    26    1
    49    28    31    1
@<TRIPOS>MOLECULE
*****
 45 49 0 0 0
SMALL
GASTEIGER

@<TRIPOS>ATOM
      1 C          64.2324   87.9128   14.3222 C.3     1  UNL1        0.1245
      2 N          63.5339   88.6125   15.4503 N.am    1  UNL1       -0.2735
      3 C          63.7803   90.0717   15.6951 C.2     1  UNL1        0.2492
      4 O          63.0818   90.7714   16.8232 O.2     1  UNL1       -0.2699
      5 C          64.7252   90.8313   14.8118 C.ar    1  UNL1        0.0567
      6 C          66.1983   90.8075   15.0935 C.ar    1  UNL1        0.0063
      7 C          67.1432   91.5670   14.2102 C.ar    1  UNL1        0.0225
      8 C          66.6150   92.3505   13.0452 C.ar    1  UNL1        0.1202
      9 N          67.2990   93.1904   12.0075 N.ar    1  UNL1       -0.1946
     10 C          66.2487   93.7333   11.0846 C.ar    1  UNL1        0.2925
     11 O          64.9155   93.2290   11.5518 O.2     1  UNL1       -0.4237
     12 C          65.1419   92.3743   12.7635 C.ar    1  UNL1        0.1662
     13 C          64.1970   91.6148   13.6468 C.ar    1  UNL1        0.0437
     14 N          66.4892   94.6242    9.9019 N.pl3   1  UNL1       -0.2585
     15 C          65.8139   95.9611    9.8204 C.3     1  UNL1        0.1272
     16 C          66.0544   96.8520    8.6379 C.3     1  UNL1        0.1637
     17 O          66.9702   96.4059    7.5368 O.3     1  UNL1       -0.3501
     18 C          67.6454   95.0690    7.6183 C.3     1  UNL1        0.1637
     19 C          67.4049   94.1781    8.8009 C.3     1  UNL1        0.1272
     20 C          62.5889   87.8529   16.3336 C.3     1  UNL1        0.0937
     21 C          62.8060   86.6953   18.6494 C.3     1  UNL1        0.0018
     22 C          63.0969   86.7221   17.1782 C.3     1  UNL1        0.0199
     23 C          63.8957   85.6180   16.5513 C.3     1  UNL1        0.0018
     24 C          63.4989   87.6341   13.0438 C.3     1  UNL1        0.1484
     25 O          63.2036   88.7528   12.0892 O.3     1  UNL1       -0.3810
     26 H          63.5524   89.5840   12.4475 H       1  UNL1        0.2105
     27 C          63.0608   86.2365   12.7199 C.3     1  UNL1        0.1075
     28 N          61.8246   86.0088   11.9013 N.am    1  UNL1       -0.2695
     29 C          61.8640   86.2007   10.4141 C.2     1  UNL1        0.4020
     30 O          63.1395   86.6203    9.7456 O.2     1  UNL1       -0.2264
     31 H          60.9874   85.7334   12.3401 H       1  UNL1        0.1528
     32 O          60.6279   85.9730    9.5955 O.3     1  UNL1       -0.4291
     33 C          59.6487   87.0903    9.3890 C.3     1  UNL1        0.2447
     34 C          59.8141   88.3803   10.1365 C.ar    1  UNL1        0.0714
     35 C          59.3169   88.6661   11.5226 C.ar    1  UNL1        0.1053
     36 N          59.7012   90.0732   11.8720 N.ar    1  UNL1       -0.2350
     37 C          60.4360   90.6572   10.7019 C.ar    1  UNL1        0.1343
     38 S          60.5057   89.6109    9.6293 S.2     1  UNL1       -0.0652
     39 C          63.8588   85.0667   13.2145 C.3     1  UNL1        0.0485
     40 C          63.3170   83.6753   13.0722 C.ar    1  UNL1       -0.0204
     41 C          62.5274   83.0600   14.1893 C.ar    1  UNL1       -0.0042
     42 C          61.9856   81.6684   14.0469 C.ar    1  UNL1       -0.0003
     43 C          62.2334   80.8923   12.7875 C.ar    1  UNL1       -0.0000
     44 C          63.0230   81.5077   11.6704 C.ar    1  UNL1       -0.0003
     45 C          63.5648   82.8991   11.8127 C.ar    1  UNL1       -0.0042
@<TRIPOS>BOND
     1    21    22    1
     2    22    23    1
     3    22    20    1
     4    20     2    1
     5     2     1    1
     6     1    24    1
     7    24    25    1
     8    24    27    1
     9    27    39    1
    10    39    40    1
    11    40    41   ar
    12    41    42   ar
    13    42    43   ar
    14    43    44   ar
    15    44    45   ar
    16    27    28    1
    17    28    29   am
    18    29    30    2
    19    29    32    1
    20    32    33    1
    21    33    34    1
    22    34    35   ar
    23    35    36   ar
    24    36    37   ar
    25    37    38   ar
    26     2     3   am
    27     3     4    2
    28     3     5    1
    29     5     6   ar
    30     6     7   ar
    31     7     8   ar
    32     8     9   ar
    33     9    10   ar
    34    10    14    1
    35    14    15    1
    36    15    16    1
    37    16    17    1
    38    17    18    1
    39    18    19    1
    40    10    11   ar
    41    11    12   ar
    42    12    13   ar
    43    45    40   ar
    44    38    34   ar
    45    13     5   ar
    46    12     8   ar
    47    19    14    1
    48    25    26    1
    49    28    31    1
@<TRIPOS>MOLECULE
*****
 45 49 0 0 0
SMALL
GASTEIGER

@<TRIPOS>ATOM
      1 C          62.5318   87.6087    9.7653 C.3     1  UNL1        0.1245
      2 N          61.1763   88.2299    9.9291 N.am    1  UNL1       -0.2735
      3 C          61.0515   89.6316   10.4484 C.2     1  UNL1        0.2492
      4 O          59.6960   90.2528   10.6121 O.2     1  UNL1       -0.2699
      5 C          62.2821   90.4121   10.8039 C.ar    1  UNL1        0.0567
      6 C          62.9227   91.3075    9.7852 C.ar    1  UNL1        0.0063
      7 C          64.1533   92.0880   10.1408 C.ar    1  UNL1        0.0225
      8 C          64.7432   91.9731   11.5151 C.ar    1  UNL1        0.1202
      9 N          65.9409   92.6154   12.1501 N.ar    1  UNL1       -0.1946
     10 C          66.0404   92.1169   13.5613 C.ar    1  UNL1        0.2925
     11 O          64.9043   91.1666   13.7985 O.2     1  UNL1       -0.4237
     12 C          64.1026   91.0778   12.5338 C.ar    1  UNL1        0.1662
     13 C          62.8721   90.2973   12.1782 C.ar    1  UNL1        0.0437
     14 N          67.0916   92.5012   14.5601 N.pl3   1  UNL1       -0.2585
     15 C          67.7982   91.4404   15.3510 C.3     1  UNL1        0.1272
     16 C          68.8492   91.8247   16.3498 C.3     1  UNL1        0.1637
     17 O          69.1937   93.2697   16.5577 O.3     1  UNL1       -0.3501
     18 C          68.4871   94.3305   15.7668 C.3     1  UNL1        0.1637
     19 C          67.4360   93.9462   14.7680 C.3     1  UNL1        0.1272
     20 C          59.9457   87.4493    9.5735 C.3     1  UNL1        0.0937
     21 C          59.0621   88.4822    7.3594 C.3     1  UNL1        0.0018
     22 C          59.5455   87.2937    8.1363 C.3     1  UNL1        0.0199
     23 C          59.6287   85.9494    7.4760 C.3     1  UNL1        0.0018
     24 C          62.6567   86.1329    9.5277 C.3     1  UNL1        0.1484
     25 O          63.0659   85.6226    8.1778 O.3     1  UNL1       -0.3810
     26 H          63.2103   86.3720    7.5790 H       1  UNL1        0.2105
     27 C          62.3724   85.1674   10.6399 C.3     1  UNL1        0.1075
     28 N          62.4111   83.6907   10.3793 N.am    1  UNL1       -0.2695
     29 C          63.7256   82.9686   10.3494 C.2     1  UNL1        0.4020
     30 O          65.0013   83.7233   10.5800 O.2     1  UNL1       -0.2264
     31 H          61.5738   83.1954   10.2280 H       1  UNL1        0.1528
     32 O          63.7643   81.4919   10.0889 O.3     1  UNL1       -0.4291
     33 C          63.0670   80.5471   11.0222 C.3     1  UNL1        0.2447
     34 C          62.8682   80.9239   12.4605 C.ar    1  UNL1        0.0714
     35 C          63.9510   81.0987   13.4838 C.ar    1  UNL1        0.1053
     36 N          63.3039   81.4748   14.7837 N.ar    1  UNL1       -0.2350
     37 C          61.8212   81.5323   14.5638 C.ar    1  UNL1        0.1343
     38 S          61.5520   81.1918   13.1280 S.2     1  UNL1       -0.0652
     39 C          62.0494   85.6786   12.0125 C.3     1  UNL1        0.0485
     40 C          63.1373   85.8202   13.0354 C.ar    1  UNL1       -0.0204
     41 C          63.5201   87.1799   13.5399 C.ar    1  UNL1       -0.0042
     42 C          64.6081   87.3214   14.5628 C.ar    1  UNL1       -0.0003
     43 C          65.3134   86.1032   15.0811 C.ar    1  UNL1       -0.0000
     44 C          64.9306   84.7435   14.5765 C.ar    1  UNL1       -0.0003
     45 C          63.8426   84.6019   13.5537 C.ar    1  UNL1       -0.0042
@<TRIPOS>BOND
     1    21    22    1
     2    22    23    1
     3    22    20    1
     4    20     2    1
     5     2     1    1
     6     1    24    1
     7    24    25    1
     8    24    27    1
     9    27    39    1
    10    39    40    1
    11    40    41   ar
    12    41    42   ar
    13    42    43   ar
    14    43    44   ar
    15    44    45   ar
    16    27    28    1
    17    28    29   am
    18    29    30    2
    19    29    32    1
    20    32    33    1
    21    33    34    1
    22    34    35   ar
    23    35    36   ar
    24    36    37   ar
    25    37    38   ar
    26     2     3   am
    27     3     4    2
    28     3     5    1
    29     5     6   ar
    30     6     7   ar
    31     7     8   ar
    32     8     9   ar
    33     9    10   ar
    34    10    14    1
    35    14    15    1
    36    15    16    1
    37    16    17    1
    38    17    18    1
    39    18    19    1
    40    10    11   ar
    41    11    12   ar
    42    12    13   ar
    43    45    40   ar
    44    38    34   ar
    45    13     5   ar
    46    12     8   ar
    47    19    14    1
    48    25    26    1
    49    28    31    1
@<TRIPOS>MOLECULE
*****
 45 49 0 0 0
SMALL
GASTEIGER

@<TRIPOS>ATOM
      1 C          64.2156   88.0011   14.0728 C.3     1  UNL1        0.1245
      2 N          63.5836   88.6299   15.2790 N.am    1  UNL1       -0.2735
      3 C          63.8784   90.0605   15.6204 C.2     1  UNL1        0.2492
      4 O          63.2463   90.6893   16.8266 O.2     1  UNL1       -0.2699
      5 C          64.8052   90.8623   14.7554 C.ar    1  UNL1        0.0567
      6 C          66.2673   90.9294   15.0836 C.ar    1  UNL1        0.0063
      7 C          67.1941   91.7312   14.2187 C.ar    1  UNL1        0.0225
      8 C          66.6588   92.4659   13.0255 C.ar    1  UNL1        0.1202
      9 N          67.3257   93.3303   11.9968 N.ar    1  UNL1       -0.1946
     10 C          66.2757   93.7974   11.0328 C.ar    1  UNL1        0.2925
     11 O          64.9599   93.2217   11.4657 O.2     1  UNL1       -0.4237
     12 C          65.1967   92.3987   12.6972 C.ar    1  UNL1        0.1662
     13 C          64.2699   91.5970   13.5622 C.ar    1  UNL1        0.0437
     14 N          66.5017   94.6845    9.8445 N.pl3   1  UNL1       -0.2585
     15 C          65.7337   95.9657    9.7081 C.3     1  UNL1        0.1272
     16 C          65.9597   96.8528    8.5199 C.3     1  UNL1        0.1637
     17 O          66.9537   96.4587    7.4680 O.3     1  UNL1       -0.3501
     18 C          67.7217   95.1774    7.6043 C.3     1  UNL1        0.1637
     19 C          67.4957   94.2904    8.7926 C.3     1  UNL1        0.1272
     20 C          62.6567   87.8281   16.1440 C.3     1  UNL1        0.0937
     21 C          62.8168   86.5284   18.3879 C.3     1  UNL1        0.0018
     22 C          63.1862   86.6732   16.9413 C.3     1  UNL1        0.0199
     23 C          64.0850   85.6629   16.2920 C.3     1  UNL1        0.0018
     24 C          63.4424   87.8918   12.7920 C.3     1  UNL1        0.1484
     25 O          63.3107   89.0840   11.8914 O.3     1  UNL1       -0.3810
     26 H          63.7803   89.8377   12.2818 H       1  UNL1        0.2105
     27 C          62.8010   86.5902   12.4119 C.3     1  UNL1        0.1075
     28 N          61.8026   86.5446   11.2932 N.am    1  UNL1       -0.2695
     29 C          60.7229   87.5824   11.2088 C.2     1  UNL1        0.4020
     30 O          60.6415   88.6659   12.2430 O.2     1  UNL1       -0.2264
     31 H          61.8561   85.8335   10.6145 H       1  UNL1        0.1528
     32 O          59.7246   87.5368   10.0902 O.3     1  UNL1       -0.4291
     33 C          60.1866   87.6496    8.6676 C.3     1  UNL1        0.2447
     34 C          60.8065   86.4667    7.9843 C.ar    1  UNL1        0.0714
     35 C          60.1406   85.5864    6.9686 C.ar    1  UNL1        0.1053
     36 N          61.1236   84.5322    6.5533 N.ar    1  UNL1       -0.2350
     37 C          62.3970   84.7611    7.3124 C.ar    1  UNL1        0.1343
     38 S          62.2010   85.9567    8.1967 S.2     1  UNL1       -0.0652
     39 C          63.1578   85.3344   13.1505 C.3     1  UNL1        0.0485
     40 C          63.2112   84.0248   12.4210 C.ar    1  UNL1       -0.0204
     41 C          62.5813   82.8043   13.0238 C.ar    1  UNL1       -0.0042
     42 C          62.6347   81.4947   12.2943 C.ar    1  UNL1       -0.0003
     43 C          63.3180   81.4057   10.9619 C.ar    1  UNL1       -0.0000
     44 C          63.9479   82.6263   10.3591 C.ar    1  UNL1       -0.0003
     45 C          63.8945   83.9358   11.0886 C.ar    1  UNL1       -0.0042
@<TRIPOS>BOND
     1    21    22    1
     2    22    23    1
     3    22    20    1
     4    20     2    1
     5     2     1    1
     6     1    24    1
     7    24    25    1
     8    24    27    1
     9    27    39    1
    10    39    40    1
    11    40    41   ar
    12    41    42   ar
    13    42    43   ar
    14    43    44   ar
    15    44    45   ar
    16    27    28    1
    17    28    29   am
    18    29    30    2
    19    29    32    1
    20    32    33    1
    21    33    34    1
    22    34    35   ar
    23    35    36   ar
    24    36    37   ar
    25    37    38   ar
    26     2     3   am
    27     3     4    2
    28     3     5    1
    29     5     6   ar
    30     6     7   ar
    31     7     8   ar
    32     8     9   ar
    33     9    10   ar
    34    10    14    1
    35    14    15    1
    36    15    16    1
    37    16    17    1
    38    17    18    1
    39    18    19    1
    40    10    11   ar
    41    11    12   ar
    42    12    13   ar
    43    45    40   ar
    44    38    34   ar
    45    13     5   ar
    46    12     8   ar
    47    19    14    1
    48    25    26    1
    49    28    31    1
@<TRIPOS>MOLECULE
*****
 45 49 0 0 0
SMALL
GASTEIGER

@<TRIPOS>ATOM
      1 C          63.8530   89.9382   12.2053 C.3     1  UNL1        0.1245
      2 N          64.3938   90.8818   13.2384 N.am    1  UNL1       -0.2735
      3 C          64.4751   90.4555   14.6742 C.2     1  UNL1        0.2492
      4 O          65.0158   91.3990   15.7073 O.2     1  UNL1       -0.2699
      5 C          64.0156   89.0855   15.0770 C.ar    1  UNL1        0.0567
      6 C          63.4156   88.8645   16.4339 C.ar    1  UNL1        0.0063
      7 C          62.9561   87.4946   16.8367 C.ar    1  UNL1        0.0225
      8 C          63.0966   86.3457   15.8825 C.ar    1  UNL1        0.1202
      9 N          62.7361   84.8943   15.9991 N.ar    1  UNL1       -0.1946
     10 C          63.1132   84.2184   14.7143 C.ar    1  UNL1        0.2925
     11 O          63.7068   85.2520   13.8036 O.2     1  UNL1       -0.4237
     12 C          63.6966   86.5668   14.5257 C.ar    1  UNL1        0.1662
     13 C          64.1560   87.9367   14.1229 C.ar    1  UNL1        0.0437
     14 N          62.9290   82.7641   14.3959 N.pl3   1  UNL1       -0.2585
     15 C          61.5573   82.1579   14.4249 C.3     1  UNL1        0.1272
     16 C          61.3731   80.7037   14.1066 C.3     1  UNL1        0.1637
     17 O          62.5606   79.8558   13.7592 O.3     1  UNL1       -0.3501
     18 C          63.9324   80.4620   13.7302 C.3     1  UNL1        0.1637
     19 C          64.1166   81.9162   14.0485 C.3     1  UNL1        0.1272
     20 C          64.8533   92.2517   12.8356 C.3     1  UNL1        0.0937
     21 C          66.4991   93.0014   10.9704 C.3     1  UNL1        0.0018
     22 C          66.2565   92.4588   12.3475 C.3     1  UNL1        0.0199
     23 C          67.4170   92.1231   13.2367 C.3     1  UNL1        0.0018
     24 C          62.3934   89.5925   12.1962 C.3     1  UNL1        0.1484
     25 O          61.5096   90.0398   13.3226 O.3     1  UNL1       -0.3810
     26 H          62.0356   90.5370   13.9684 H       1  UNL1        0.2105
     27 C          61.8176   88.7995   11.0605 C.3     1  UNL1        0.1075
     28 N          61.6777   89.4248    9.7042 N.am    1  UNL1       -0.2695
     29 C          60.4665   89.1376    8.8672 C.2     1  UNL1        0.4020
     30 O          59.3952   88.2251    9.3866 O.2     1  UNL1       -0.2264
     31 H          62.3809   90.0237    9.3634 H       1  UNL1        0.1528
     32 O          60.3266   89.7628    7.5110 O.3     1  UNL1       -0.4291
     33 C          59.0608   89.5793    6.7275 C.3     1  UNL1        0.2447
     34 C          58.6683   90.5885    5.6894 C.ar    1  UNL1        0.0714
     35 C          57.2664   90.9507    5.2975 C.ar    1  UNL1        0.1053
     36 N          57.3404   91.9987    4.2269 N.ar    1  UNL1       -0.2350
     37 C          58.7881   92.2841    3.9571 C.ar    1  UNL1        0.1343
     38 S          59.6087   91.4126    4.8609 S.2     1  UNL1       -0.0652
     39 C          61.3817   87.3813   11.2811 C.3     1  UNL1        0.0485
     40 C          62.0903   86.2611   10.5790 C.ar    1  UNL1       -0.0204
     41 C          62.4890   85.0318   11.3405 C.ar    1  UNL1       -0.0042
     42 C          63.1976   83.9115   10.6383 C.ar    1  UNL1       -0.0003
     43 C          63.5075   84.0207    9.1748 C.ar    1  UNL1       -0.0000
     44 C          63.1088   85.2500    8.4133 C.ar    1  UNL1       -0.0003
     45 C          62.4002   86.3702    9.1154 C.ar    1  UNL1       -0.0042
@<TRIPOS>BOND
     1    21    22    1
     2    22    23    1
     3    22    20    1
     4    20     2    1
     5     2     1    1
     6     1    24    1
     7    24    25    1
     8    24    27    1
     9    27    39    1
    10    39    40    1
    11    40    41   ar
    12    41    42   ar
    13    42    43   ar
    14    43    44   ar
    15    44    45   ar
    16    27    28    1
    17    28    29   am
    18    29    30    2
    19    29    32    1
    20    32    33    1
    21    33    34    1
    22    34    35   ar
    23    35    36   ar
    24    36    37   ar
    25    37    38   ar
    26     2     3   am
    27     3     4    2
    28     3     5    1
    29     5     6   ar
    30     6     7   ar
    31     7     8   ar
    32     8     9   ar
    33     9    10   ar
    34    10    14    1
    35    14    15    1
    36    15    16    1
    37    16    17    1
    38    17    18    1
    39    18    19    1
    40    10    11   ar
    41    11    12   ar
    42    12    13   ar
    43    45    40   ar
    44    38    34   ar
    45    13     5   ar
    46    12     8   ar
    47    19    14    1
    48    25    26    1
    49    28    31    1
@<TRIPOS>MOLECULE
*****
 45 49 0 0 0
SMALL
GASTEIGER

@<TRIPOS>ATOM
      1 C          64.9511   90.5487   13.3962 C.3     1  UNL1        0.1245
      2 N          65.0398   91.3747   14.6451 N.am    1  UNL1       -0.2735
      3 C          64.5699   90.8099   15.9528 C.2     1  UNL1        0.2492
      4 O          64.6586   91.6360   17.2017 O.2     1  UNL1       -0.2699
      5 C          64.0112   89.4190   16.0117 C.ar    1  UNL1        0.0567
      6 C          63.0815   89.0306   17.1228 C.ar    1  UNL1        0.0063
      7 C          62.5229   87.6398   17.1816 C.ar    1  UNL1        0.0225
      8 C          62.8940   86.6374   16.1293 C.ar    1  UNL1        0.1202
      9 N          62.5037   85.2032   15.9271 N.ar    1  UNL1       -0.1946
     10 C          63.1922   84.7053   14.6910 C.ar    1  UNL1        0.2925
     11 O          64.0080   85.8317   14.1292 O.2     1  UNL1       -0.4237
     12 C          63.8237   87.0258   15.0181 C.ar    1  UNL1        0.1662
     13 C          64.3823   88.4166   14.9593 C.ar    1  UNL1        0.0437
     14 N          63.0839   83.3235   14.1173 N.pl3   1  UNL1       -0.2585
     15 C          64.0608   82.8654   13.0753 C.3     1  UNL1        0.1272
     16 C          63.9526   81.4837   12.5016 C.3     1  UNL1        0.1637
     17 O          62.8674   80.5601   12.9700 O.3     1  UNL1       -0.3501
     18 C          61.8905   81.0182   14.0120 C.3     1  UNL1        0.1637
     19 C          61.9987   82.3999   14.5856 C.3     1  UNL1        0.1272
     20 C          65.5985   92.7656   14.5863 C.3     1  UNL1        0.0937
     21 C          67.9434   92.3553   13.5456 C.3     1  UNL1        0.0018
     22 C          67.0832   92.9789   14.6044 C.3     1  UNL1        0.0199
     23 C          67.7076   93.8158   15.6814 C.3     1  UNL1        0.0018
     24 C          63.7077   90.5875   12.5580 C.3     1  UNL1        0.1484
     25 O          62.4663   89.8868   13.0249 O.3     1  UNL1       -0.3810
     26 H          62.6371   89.4618   13.8799 H       1  UNL1        0.2105
     27 C          63.7058   91.3270   11.2530 C.3     1  UNL1        0.1075
     28 N          63.1339   90.6812   10.0258 N.am    1  UNL1       -0.2695
     29 C          61.6666   90.3782    9.9523 C.2     1  UNL1        0.4020
     30 O          60.7713   90.7210   11.1060 O.2     1  UNL1       -0.2264
     31 H          63.7215   90.4562    9.2686 H       1  UNL1        0.1528
     32 O          61.0947   89.7324    8.7252 O.3     1  UNL1       -0.4291
     33 C          60.4651   88.3740    8.8168 C.3     1  UNL1        0.2447
     34 C          61.0676   87.3264    9.7055 C.ar    1  UNL1        0.0714
     35 C          60.8042   87.1569   11.1724 C.ar    1  UNL1        0.1053
     36 N          61.6130   85.9902   11.6568 N.ar    1  UNL1       -0.2350
     37 C          62.3763   85.4387   10.4891 C.ar    1  UNL1        0.1343
     38 S          62.0392   86.2645    9.2832 S.2     1  UNL1       -0.0652
     39 C          64.2757   92.7123   11.1751 C.3     1  UNL1        0.0485
     40 C          65.6215   92.9356   10.5516 C.ar    1  UNL1       -0.0204
     41 C          66.5927   91.7983   10.4363 C.ar    1  UNL1       -0.0042
     42 C          67.9386   92.0217    9.8127 C.ar    1  UNL1       -0.0003
     43 C          68.3132   93.3823    9.3044 C.ar    1  UNL1       -0.0000
     44 C          67.3420   94.5196    9.4197 C.ar    1  UNL1       -0.0003
     45 C          65.9962   94.2963   10.0433 C.ar    1  UNL1       -0.0042
@<TRIPOS>BOND
     1    21    22    1
     2    22    23    1
     3    22    20    1
     4    20     2    1
     5     2     1    1
     6     1    24    1
     7    24    25    1
     8    24    27    1
     9    27    39    1
    10    39    40    1
    11    40    41   ar
    12    41    42   ar
    13    42    43   ar
    14    43    44   ar
    15    44    45   ar
    16    27    28    1
    17    28    29   am
    18    29    30    2
    19    29    32    1
    20    32    33    1
    21    33    34    1
    22    34    35   ar
    23    35    36   ar
    24    36    37   ar
    25    37    38   ar
    26     2     3   am
    27     3     4    2
    28     3     5    1
    29     5     6   ar
    30     6     7   ar
    31     7     8   ar
    32     8     9   ar
    33     9    10   ar
    34    10    14    1
    35    14    15    1
    36    15    16    1
    37    16    17    1
    38    17    18    1
    39    18    19    1
    40    10    11   ar
    41    11    12   ar
    42    12    13   ar
    43    45    40   ar
    44    38    34   ar
    45    13     5   ar
    46    12     8   ar
    47    19    14    1
    48    25    26    1
    49    28    31    1
@<TRIPOS>MOLECULE
*****
 45 49 0 0 0
SMALL
GASTEIGER

@<TRIPOS>ATOM
      1 C          62.6765   86.8152   10.0257 C.3     1  UNL1        0.1245
      2 N          61.2761   87.3324    9.8792 N.am    1  UNL1       -0.2735
      3 C          60.9812   88.7810   10.1330 C.2     1  UNL1        0.2492
      4 O          59.5808   89.2982    9.9866 O.2     1  UNL1       -0.2699
      5 C          62.0867   89.7126   10.5333 C.ar    1  UNL1        0.0567
      6 C          62.4991   90.8252    9.6158 C.ar    1  UNL1        0.0063
      7 C          63.6045   91.7566   10.0161 C.ar    1  UNL1        0.0225
      8 C          64.2977   91.5755   11.3340 C.ar    1  UNL1        0.1202
      9 N          65.4127   92.3313   11.9939 N.ar    1  UNL1       -0.1946
     10 C          65.6895   91.6858   13.3192 C.ar    1  UNL1        0.2925
     11 O          64.7455   90.5310   13.4785 O.2     1  UNL1       -0.4237
     12 C          63.8853   90.4628   12.2515 C.ar    1  UNL1        0.1662
     13 C          62.7798   89.5314   11.8512 C.ar    1  UNL1        0.0437
     14 N          66.7279   92.1190   14.3113 N.pl3   1  UNL1       -0.2585
     15 C          66.3259   92.4688   15.7134 C.3     1  UNL1        0.1272
     16 C          67.3642   92.9020   16.7054 C.3     1  UNL1        0.1637
     17 O          68.8046   92.9853   16.2953 O.3     1  UNL1       -0.3501
     18 C          69.2067   92.6354   14.8932 C.3     1  UNL1        0.1637
     19 C          68.1683   92.2023   13.9012 C.3     1  UNL1        0.1272
     20 C          60.1706   86.4009    9.4789 C.3     1  UNL1        0.0937
     21 C          60.2978   85.2674    7.1446 C.3     1  UNL1        0.0018
     22 C          59.7348   86.3263    8.0456 C.3     1  UNL1        0.0199
     23 C          58.7359   87.3107    7.5132 C.3     1  UNL1        0.0018
     24 C          62.9907   85.3913    9.6739 C.3     1  UNL1        0.1484
     25 O          63.1466   84.9906    8.2368 O.3     1  UNL1       -0.3810
     26 H          63.0138   85.7657    7.6689 H       1  UNL1        0.2105
     27 C          63.1491   84.3680   10.7592 C.3     1  UNL1        0.1075
     28 N          62.4121   84.5296   12.0557 N.am    1  UNL1       -0.2695
     29 C          63.1630   84.5002   13.3539 C.2     1  UNL1        0.4020
     30 O          64.6509   84.3092   13.3556 O.2     1  UNL1       -0.2264
     31 H          61.4357   84.6549   12.0545 H       1  UNL1        0.1528
     32 O          62.4261   84.6618   14.6503 O.3     1  UNL1       -0.4291
     33 C          63.1480   85.1632   15.8659 C.3     1  UNL1        0.2447
     34 C          63.2600   86.6379   16.1166 C.ar    1  UNL1        0.0714
     35 C          63.8573   87.6481   15.1824 C.ar    1  UNL1        0.1053
     36 N          63.7608   88.9958   15.8338 N.ar    1  UNL1       -0.2350
     37 C          63.1039   88.8185   17.1707 C.ar    1  UNL1        0.1343
     38 S          62.7944   87.3612   17.3454 S.2     1  UNL1       -0.0652
     39 C          64.0444   83.1832   10.5480 C.3     1  UNL1        0.0485
     40 C          63.5371   81.8001   10.8300 C.ar    1  UNL1       -0.0204
     41 C          63.2312   81.3862   12.2390 C.ar    1  UNL1       -0.0042
     42 C          62.7238   80.0030   12.5209 C.ar    1  UNL1       -0.0003
     43 C          62.5224   79.0338   11.3940 C.ar    1  UNL1       -0.0000
     44 C          62.8283   79.4477    9.9850 C.ar    1  UNL1       -0.0003
     45 C          63.3356   80.8308    9.7030 C.ar    1  UNL1       -0.0042
@<TRIPOS>BOND
     1    21    22    1
     2    22    23    1
     3    22    20    1
     4    20     2    1
     5     2     1    1
     6     1    24    1
     7    24    25    1
     8    24    27    1
     9    27    39    1
    10    39    40    1
    11    40    41   ar
    12    41    42   ar
    13    42    43   ar
    14    43    44   ar
    15    44    45   ar
    16    27    28    1
    17    28    29   am
    18    29    30    2
    19    29    32    1
    20    32    33    1
    21    33    34    1
    22    34    35   ar
    23    35    36   ar
    24    36    37   ar
    25    37    38   ar
    26     2     3   am
    27     3     4    2
    28     3     5    1
    29     5     6   ar
    30     6     7   ar
    31     7     8   ar
    32     8     9   ar
    33     9    10   ar
    34    10    14    1
    35    14    15    1
    36    15    16    1
    37    16    17    1
    38    17    18    1
    39    18    19    1
    40    10    11   ar
    41    11    12   ar
    42    12    13   ar
    43    45    40   ar
    44    38    34   ar
    45    13     5   ar
    46    12     8   ar
    47    19    14    1
    48    25    26    1
    49    28    31    1
@<TRIPOS>MOLECULE
*****
 45 49 0 0 0
SMALL
GASTEIGER

@<TRIPOS>ATOM
      1 C          62.5969   87.5336   11.1061 C.3     1  UNL1        0.1245
      2 N          61.3559   88.2259   10.6258 N.am    1  UNL1       -0.2735
      3 C          61.3246   89.7218   10.5207 C.2     1  UNL1        0.2492
      4 O          60.0837   90.4141   10.0404 O.2     1  UNL1       -0.2699
      5 C          62.5343   90.5256   10.8959 C.ar    1  UNL1        0.0567
      6 C          63.1408   91.4749    9.9055 C.ar    1  UNL1        0.0063
      7 C          64.3505   92.2785   10.2807 C.ar    1  UNL1        0.0225
      8 C          64.9536   92.1329   11.6463 C.ar    1  UNL1        0.1202
      9 N          66.1365   92.7877   12.2961 N.ar    1  UNL1       -0.1946
     10 C          66.2610   92.2430   13.6882 C.ar    1  UNL1        0.2925
     11 O          65.1552   91.2516   13.8987 O.2     1  UNL1       -0.4237
     12 C          64.3472   91.1836   12.6367 C.ar    1  UNL1        0.1662
     13 C          63.1375   90.3799   12.2615 C.ar    1  UNL1        0.0437
     14 N          67.3077   92.6229   14.6933 N.pl3   1  UNL1       -0.2585
     15 C          67.6803   94.0638   14.8799 C.3     1  UNL1        0.1272
     16 C          68.7269   94.4438   15.8850 C.3     1  UNL1        0.1637
     17 O          69.4009   93.3828   16.7034 O.3     1  UNL1       -0.3501
     18 C          69.0284   91.9418   16.5168 C.3     1  UNL1        0.1637
     19 C          67.9818   91.5619   15.5117 C.3     1  UNL1        0.1272
     20 C          60.1462   87.4221   10.2506 C.3     1  UNL1        0.0937
     21 C          58.8270   87.1751    8.0261 C.3     1  UNL1        0.0018
     22 C          60.0245   86.8506    8.8691 C.3     1  UNL1        0.0199
     23 C          61.1003   85.9545    8.3307 C.3     1  UNL1        0.0018
     24 C          62.4877   86.3070   11.9627 C.3     1  UNL1        0.1484
     25 O          61.2397   85.4756   11.9264 O.3     1  UNL1       -0.3810
     26 H          60.6083   85.8673   11.3028 H       1  UNL1        0.2105
     27 C          63.6264   85.9119   12.8555 C.3     1  UNL1        0.1075
     28 N          64.1280   84.4982   12.8501 N.am    1  UNL1       -0.2695
     29 C          64.0936   83.6950   11.5837 C.2     1  UNL1        0.4020
     30 O          63.5575   84.3055   10.3227 O.2     1  UNL1       -0.2264
     31 H          64.4799   84.0975   13.6777 H       1  UNL1        0.1528
     32 O          64.5952   82.2814   11.5783 O.3     1  UNL1       -0.4291
     33 C          64.4621   81.4336   12.8085 C.3     1  UNL1        0.2447
     34 C          63.1028   81.1214   13.3608 C.ar    1  UNL1        0.0714
     35 C          62.2679   82.0296   14.2141 C.ar    1  UNL1        0.1053
     36 N          60.9889   81.3158   14.5374 N.ar    1  UNL1       -0.2350
     37 C          61.0333   79.9664   13.8838 C.ar    1  UNL1        0.1343
     38 S          62.3397   79.8463   13.1566 S.2     1  UNL1       -0.0652
     39 C          64.2635   86.9303   13.7537 C.3     1  UNL1        0.0485
     40 C          63.7745   87.0991   15.1616 C.ar    1  UNL1       -0.0204
     41 C          63.5164   85.8933   16.0156 C.ar    1  UNL1       -0.0042
     42 C          63.0273   86.0622   17.4236 C.ar    1  UNL1       -0.0003
     43 C          62.7963   87.4369   17.9775 C.ar    1  UNL1       -0.0000
     44 C          63.0544   88.6427   17.1235 C.ar    1  UNL1       -0.0003
     45 C          63.5434   88.4739   15.7156 C.ar    1  UNL1       -0.0042
@<TRIPOS>BOND
     1    21    22    1
     2    22    23    1
     3    22    20    1
     4    20     2    1
     5     2     1    1
     6     1    24    1
     7    24    25    1
     8    24    27    1
     9    27    39    1
    10    39    40    1
    11    40    41   ar
    12    41    42   ar
    13    42    43   ar
    14    43    44   ar
    15    44    45   ar
    16    27    28    1
    17    28    29   am
    18    29    30    2
    19    29    32    1
    20    32    33    1
    21    33    34    1
    22    34    35   ar
    23    35    36   ar
    24    36    37   ar
    25    37    38   ar
    26     2     3   am
    27     3     4    2
    28     3     5    1
    29     5     6   ar
    30     6     7   ar
    31     7     8   ar
    32     8     9   ar
    33     9    10   ar
    34    10    14    1
    35    14    15    1
    36    15    16    1
    37    16    17    1
    38    17    18    1
    39    18    19    1
    40    10    11   ar
    41    11    12   ar
    42    12    13   ar
    43    45    40   ar
    44    38    34   ar
    45    13     5   ar
    46    12     8   ar
    47    19    14    1
    48    25    26    1
    49    28    31    1
