@<TRIPOS>MOLECULE
*****
 29 31 0 0 0
SMALL
GASTEIGER

@<TRIPOS>ATOM
      1 C          61.6253   87.4162   10.0104 C.ar    1  UNL1        0.1404
      2 C          61.9086   86.0367   10.5266 C.ar    1  UNL1        0.0430
      3 C          62.6626   85.8565   11.8108 C.ar    1  UNL1        0.0754
      4 C          63.1332   87.0560   12.5787 C.ar    1  UNL1        0.1033
      5 N          63.8931   87.1894   13.8651 N.ar    1  UNL1       -0.2238
      6 C          64.0794   88.6514   14.1438 C.ar    1  UNL1        0.1788
      7 N          63.4347   89.4216   13.0298 N.ar    1  UNL1       -0.3031
      8 C          62.8498   88.4356   12.0625 C.ar    1  UNL1        0.0824
      9 C          62.0959   88.6157   10.7783 C.ar    1  UNL1        0.0556
     10 C          62.9459   84.4769   12.3270 C.2     1  UNL1        0.2475
     11 O          63.4182   83.4071   11.3876 O.2     1  UNL1       -0.2701
     12 N          62.7570   84.1672   13.7824 N.am    1  UNL1       -0.2982
     13 H          62.4470   84.8694   14.3989 H       1  UNL1        0.1498
     14 C          63.0403   82.7875   14.2985 C.3     1  UNL1        0.1280
     15 C          62.0002   81.7135   14.1781 C.3     1  UNL1        0.2144
     16 F          61.9074   80.8964   12.9235 F       1  UNL1       -0.2324
     17 C          60.1583   86.4318    8.1055 C.3     1  UNL1        0.2525
     18 O          60.8713   87.5964    8.7262 O.3     1  UNL1       -0.4714
     19 C          63.3837   90.9156   12.9050 C.3     1  UNL1        0.1531
     20 C          64.6545   91.7124   12.9101 C.ar    1  UNL1        0.0823
     21 N          65.3648   91.9831   14.2032 N.ar    1  UNL1       -0.2266
     22 C          66.6356   92.7799   14.2084 C.ar    1  UNL1        0.1998
     23 N          67.1961   93.3061   12.9203 N.ar    1  UNL1       -0.2093
     24 C          66.4857   93.0354   11.6272 C.ar    1  UNL1        0.1307
     25 C          65.2150   92.2386   11.6221 C.ar    1  UNL1        0.0253
     26 C          64.5046   91.9679   10.3290 C.3     1  UNL1        0.0353
     27 N          67.0463   93.5617   10.3392 N.pl3   1  UNL1       -0.2899
     28 C          66.6458   94.9207    9.8466 C.3     1  UNL1        0.1136
     29 C          68.0073   92.7288    9.5438 C.3     1  UNL1        0.1136
@<TRIPOS>BOND
     1    17    18    1
     2    18     1    1
     3     1     2   ar
     4     2     3   ar
     5     3    10    1
     6    10    11    2
     7    10    12   am
     8    12    14    1
     9    14    15    1
    10    15    16    1
    11     3     4   ar
    12     4     5   ar
    13     5     6   ar
    14     6     7   ar
    15     7    19    1
    16    19    20    1
    17    20    21   ar
    18    21    22   ar
    19    22    23   ar
    20    23    24   ar
    21    24    27    1
    22    27    28    1
    23    27    29    1
    24    24    25   ar
    25    25    26    1
    26     7     8   ar
    27     8     9   ar
    28     9     1   ar
    29     8     4   ar
    30    25    20   ar
    31    12    13    1
@<TRIPOS>MOLECULE
*****
 29 31 0 0 0
SMALL
GASTEIGER

@<TRIPOS>ATOM
      1 C          61.4845   87.3200    9.7533 C.ar    1  UNL1        0.1404
      2 C          61.7350   85.9457   10.2993 C.ar    1  UNL1        0.0430
      3 C          62.4880   85.7754   11.5855 C.ar    1  UNL1        0.0754
      4 C          62.9905   86.9795   12.3254 C.ar    1  UNL1        0.1033
      5 N          63.7573   87.1225   13.6066 N.ar    1  UNL1       -0.2238
      6 C          63.9806   88.5852   13.8523 C.ar    1  UNL1        0.1788
      7 N          63.3519   89.3463   12.7230 N.ar    1  UNL1       -0.3031
      8 C          62.7399   88.3539   11.7793 C.ar    1  UNL1        0.0824
      9 C          61.9870   88.5242   10.4932 C.ar    1  UNL1        0.0556
     10 C          62.7385   84.4009   12.1315 C.2     1  UNL1        0.2475
     11 O          63.0568   83.2700   11.1990 O.2     1  UNL1       -0.2701
     12 N          62.6706   84.1574   13.6101 N.am    1  UNL1       -0.2982
     13 H          62.4616   84.8997   14.2221 H       1  UNL1        0.1498
     14 C          62.9211   82.7830   14.1560 C.3     1  UNL1        0.1280
     15 C          61.8276   81.7564   14.1340 C.3     1  UNL1        0.2144
     16 F          61.7804   80.7342   13.0373 F       1  UNL1       -0.2324
     17 C          59.3603   86.9010    8.3172 C.3     1  UNL1        0.2525
     18 O          60.7314   87.4904    8.4671 O.3     1  UNL1       -0.4714
     19 C          63.3377   90.8379   12.5651 C.3     1  UNL1        0.1531
     20 C          64.6191   91.5786   12.3209 C.ar    1  UNL1        0.0823
     21 N          64.9386   92.0921   10.9483 N.ar    1  UNL1       -0.2266
     22 C          66.2199   92.8327   10.7041 C.ar    1  UNL1        0.1998
     23 N          67.1817   93.0598   11.8326 N.ar    1  UNL1       -0.2093
     24 C          66.8621   92.5462   13.2052 C.ar    1  UNL1        0.1307
     25 C          65.5808   91.8056   13.4494 C.ar    1  UNL1        0.0253
     26 C          65.2612   91.2920   14.8220 C.3     1  UNL1        0.0353
     27 N          67.8240   92.7733   14.3337 N.pl3   1  UNL1       -0.2899
     28 C          67.4913   93.7565   15.4164 C.3     1  UNL1        0.1136
     29 C          69.1185   92.0170   14.3792 C.3     1  UNL1        0.1136
@<TRIPOS>BOND
     1    17    18    1
     2    18     1    1
     3     1     2   ar
     4     2     3   ar
     5     3    10    1
     6    10    11    2
     7    10    12   am
     8    12    14    1
     9    14    15    1
    10    15    16    1
    11     3     4   ar
    12     4     5   ar
    13     5     6   ar
    14     6     7   ar
    15     7    19    1
    16    19    20    1
    17    20    21   ar
    18    21    22   ar
    19    22    23   ar
    20    23    24   ar
    21    24    27    1
    22    27    28    1
    23    27    29    1
    24    24    25   ar
    25    25    26    1
    26     7     8   ar
    27     8     9   ar
    28     9     1   ar
    29     8     4   ar
    30    25    20   ar
    31    12    13    1
@<TRIPOS>MOLECULE
*****
 29 31 0 0 0
SMALL
GASTEIGER

@<TRIPOS>ATOM
      1 C          65.7288   92.8637   10.7548 C.ar    1  UNL1        0.1404
      2 C          66.5347   93.0485   12.0062 C.ar    1  UNL1        0.0430
      3 C          66.1223   92.3586   13.2727 C.ar    1  UNL1        0.0754
      4 C          64.9038   91.4838   13.2877 C.ar    1  UNL1        0.1033
      5 N          64.2574   90.6818   14.3780 N.ar    1  UNL1       -0.2238
      6 C          63.0519   90.0013   13.8004 C.ar    1  UNL1        0.1788
      7 N          62.9533   90.3828   12.3530 N.ar    1  UNL1       -0.3031
      8 C          64.0979   91.2990   12.0361 C.ar    1  UNL1        0.0824
      9 C          64.5103   91.9890   10.7697 C.ar    1  UNL1        0.0556
     10 C          66.9283   92.5434   14.5242 C.2     1  UNL1        0.2475
     11 O          66.2521   92.9578   15.7974 O.2     1  UNL1       -0.2701
     12 N          68.4105   92.3140   14.5024 N.am    1  UNL1       -0.2982
     13 H          68.8543   92.0421   13.6668 H       1  UNL1        0.1498
     14 C          69.2164   92.4989   15.7539 C.3     1  UNL1        0.1280
     15 C          69.7434   93.8566   16.1129 C.3     1  UNL1        0.2144
     16 F          68.7956   95.0049   16.2956 F       1  UNL1       -0.2324
     17 C          67.4856   94.2124    9.3968 C.3     1  UNL1        0.2525
     18 O          66.1412   93.5536    9.4883 O.3     1  UNL1       -0.4714
     19 C          61.8958   89.9278   11.3914 C.3     1  UNL1        0.1531
     20 C          61.8075   88.4817   11.0027 C.ar    1  UNL1        0.0823
     21 N          62.4259   87.4312   11.8766 N.ar    1  UNL1       -0.2266
     22 C          62.3377   85.9851   11.4880 C.ar    1  UNL1        0.1998
     23 N          61.6309   85.5897   10.2253 N.ar    1  UNL1       -0.2093
     24 C          61.0124   86.6403    9.3515 C.ar    1  UNL1        0.1307
     25 C          61.1007   88.0863    9.7402 C.ar    1  UNL1        0.0253
     26 C          60.4823   89.1369    8.8663 C.3     1  UNL1        0.0353
     27 N          60.3057   86.2448    8.0889 N.pl3   1  UNL1       -0.2899
     28 C          61.0106   85.4030    7.0669 C.3     1  UNL1        0.1136
     29 C          58.8940   86.6911    7.8484 C.3     1  UNL1        0.1136
@<TRIPOS>BOND
     1    17    18    1
     2    18     1    1
     3     1     2   ar
     4     2     3   ar
     5     3    10    1
     6    10    11    2
     7    10    12   am
     8    12    14    1
     9    14    15    1
    10    15    16    1
    11     3     4   ar
    12     4     5   ar
    13     5     6   ar
    14     6     7   ar
    15     7    19    1
    16    19    20    1
    17    20    21   ar
    18    21    22   ar
    19    22    23   ar
    20    23    24   ar
    21    24    27    1
    22    27    28    1
    23    27    29    1
    24    24    25   ar
    25    25    26    1
    26     7     8   ar
    27     8     9   ar
    28     9     1   ar
    29     8     4   ar
    30    25    20   ar
    31    12    13    1
@<TRIPOS>MOLECULE
*****
 29 31 0 0 0
SMALL
GASTEIGER

@<TRIPOS>ATOM
      1 C          61.8570   86.0271   10.6493 C.ar    1  UNL1        0.1404
      2 C          60.9030   86.2997    9.5244 C.ar    1  UNL1        0.0430
      3 C          60.5574   87.7131    9.1599 C.ar    1  UNL1        0.0754
      4 C          61.1660   88.8539    9.9203 C.ar    1  UNL1        0.1033
      5 N          61.0156   90.3406    9.7900 N.ar    1  UNL1       -0.2238
      6 C          61.8767   90.9869   10.8345 C.ar    1  UNL1        0.1788
      7 N          62.5593   89.8995   11.6102 N.ar    1  UNL1       -0.3031
      8 C          62.1201   88.5813   11.0452 C.ar    1  UNL1        0.0824
      9 C          62.4656   87.1678   11.4097 C.ar    1  UNL1        0.0556
     10 C          59.6033   87.9857    8.0349 C.2     1  UNL1        0.2475
     11 O          58.5399   86.9842    7.6942 O.2     1  UNL1       -0.2701
     12 N          59.7128   89.2596    7.2507 N.am    1  UNL1       -0.2982
     13 H          60.4108   89.9169    7.4743 H       1  UNL1        0.1498
     14 C          58.7587   89.5321    6.1258 C.3     1  UNL1        0.1280
     15 C          58.6414   90.9165    5.5604 C.3     1  UNL1        0.2144
     16 F          57.3163   91.4144    5.0641 F       1  UNL1       -0.2324
     17 C          63.0562   84.3364   12.2157 C.3     1  UNL1        0.2525
     18 O          62.2026   84.6136   11.0138 O.3     1  UNL1       -0.4714
     19 C          63.5136   90.0960   12.7507 C.3     1  UNL1        0.1531
     20 C          64.5739   91.1538   12.6678 C.ar    1  UNL1        0.0823
     21 N          64.6749   92.0203   11.4476 N.ar    1  UNL1       -0.2266
     22 C          65.7352   93.0781   11.3645 C.ar    1  UNL1        0.1998
     23 N          66.6944   93.2694   12.5019 N.ar    1  UNL1       -0.2093
     24 C          66.5932   92.4029   13.7221 C.ar    1  UNL1        0.1307
     25 C          65.5330   91.3451   13.8050 C.ar    1  UNL1        0.0253
     26 C          65.4319   90.4786   15.0252 C.3     1  UNL1        0.0353
     27 N          67.5525   92.5942   14.8593 N.pl3   1  UNL1       -0.2899
     28 C          69.0192   92.3596   14.6510 C.3     1  UNL1        0.1136
     29 C          67.0448   93.0203   16.2050 C.3     1  UNL1        0.1136
@<TRIPOS>BOND
     1    17    18    1
     2    18     1    1
     3     1     2   ar
     4     2     3   ar
     5     3    10    1
     6    10    11    2
     7    10    12   am
     8    12    14    1
     9    14    15    1
    10    15    16    1
    11     3     4   ar
    12     4     5   ar
    13     5     6   ar
    14     6     7   ar
    15     7    19    1
    16    19    20    1
    17    20    21   ar
    18    21    22   ar
    19    22    23   ar
    20    23    24   ar
    21    24    27    1
    22    27    28    1
    23    27    29    1
    24    24    25   ar
    25    25    26    1
    26     7     8   ar
    27     8     9   ar
    28     9     1   ar
    29     8     4   ar
    30    25    20   ar
    31    12    13    1
@<TRIPOS>MOLECULE
*****
 29 31 0 0 0
SMALL
GASTEIGER

@<TRIPOS>ATOM
      1 C          61.7209   87.2944   10.1275 C.ar    1  UNL1        0.1404
      2 C          61.8613   85.8570   10.5324 C.ar    1  UNL1        0.0430
      3 C          62.5975   85.5003   11.7898 C.ar    1  UNL1        0.0754
      4 C          63.1932   86.5812   12.6422 C.ar    1  UNL1        0.1033
      5 N          63.9679   86.5347   13.9258 N.ar    1  UNL1       -0.2238
      6 C          64.3063   87.9435   14.3142 C.ar    1  UNL1        0.1788
      7 N          63.7407   88.8607   13.2707 N.ar    1  UNL1       -0.3031
      8 C          63.0527   88.0187   12.2373 C.ar    1  UNL1        0.0824
      9 C          62.3166   88.3753   10.9800 C.ar    1  UNL1        0.0556
     10 C          62.7379   84.0628   12.1946 C.2     1  UNL1        0.2475
     11 O          62.9733   83.0098   11.1525 O.2     1  UNL1       -0.2701
     12 N          62.6429   83.6783   13.6413 N.am    1  UNL1       -0.2982
     13 H          62.4884   84.3694   14.3252 H       1  UNL1        0.1498
     14 C          62.7833   82.2408   14.0460 C.3     1  UNL1        0.1280
     15 C          61.5618   81.3875   14.2187 C.3     1  UNL1        0.2144
     16 F          61.4876   80.0418   13.5601 F       1  UNL1       -0.2324
     17 C          60.2114   88.9340    8.7921 C.3     1  UNL1        0.2525
     18 O          60.9847   87.6510    8.8701 O.3     1  UNL1       -0.4714
     19 C          63.8448   90.3570   13.2621 C.3     1  UNL1        0.1531
     20 C          64.3505   91.0807   14.4748 C.ar    1  UNL1        0.0823
     21 N          63.4763   91.2163   15.6861 N.ar    1  UNL1       -0.2266
     22 C          63.9821   91.9400   16.8988 C.ar    1  UNL1        0.1998
     23 N          65.3621   92.5279   16.9001 N.ar    1  UNL1       -0.2093
     24 C          66.2363   92.3922   15.6887 C.ar    1  UNL1        0.1307
     25 C          65.7305   91.6686   14.4761 C.ar    1  UNL1        0.0253
     26 C          66.6047   91.5328   13.2648 C.3     1  UNL1        0.0353
     27 N          67.6163   92.9801   15.6901 N.pl3   1  UNL1       -0.2899
     28 C          68.7608   92.2060   16.2736 C.3     1  UNL1        0.1136
     29 C          67.8516   94.3423   15.1079 C.3     1  UNL1        0.1136
@<TRIPOS>BOND
     1    17    18    1
     2    18     1    1
     3     1     2   ar
     4     2     3   ar
     5     3    10    1
     6    10    11    2
     7    10    12   am
     8    12    14    1
     9    14    15    1
    10    15    16    1
    11     3     4   ar
    12     4     5   ar
    13     5     6   ar
    14     6     7   ar
    15     7    19    1
    16    19    20    1
    17    20    21   ar
    18    21    22   ar
    19    22    23   ar
    20    23    24   ar
    21    24    27    1
    22    27    28    1
    23    27    29    1
    24    24    25   ar
    25    25    26    1
    26     7     8   ar
    27     8     9   ar
    28     9     1   ar
    29     8     4   ar
    30    25    20   ar
    31    12    13    1
@<TRIPOS>MOLECULE
*****
 29 31 0 0 0
SMALL
GASTEIGER

@<TRIPOS>ATOM
      1 C          61.4775   88.7791   11.2719 C.ar    1  UNL1        0.1404
      2 C          60.5803   89.1166   10.1183 C.ar    1  UNL1        0.0430
      3 C          60.4739   88.1796    8.9517 C.ar    1  UNL1        0.0754
      4 C          61.2649   86.9052    8.9388 C.ar    1  UNL1        0.1033
      5 N          61.3636   85.7953    7.9347 N.ar    1  UNL1       -0.2238
      6 C          62.3218   84.7718    8.4678 C.ar    1  UNL1        0.1788
      7 N          62.8154   85.2492    9.8014 N.ar    1  UNL1       -0.3031
      8 C          62.1622   86.5677   10.0925 C.ar    1  UNL1        0.0824
      9 C          62.2685   87.5047   11.2591 C.ar    1  UNL1        0.0556
     10 C          59.5766   88.5172    7.7980 C.2     1  UNL1        0.2475
     11 O          58.4738   87.5790    7.4062 O.2     1  UNL1       -0.2701
     12 N          59.7822   89.7929    7.0362 N.am    1  UNL1       -0.2982
     13 H          60.5061   90.4086    7.2934 H       1  UNL1        0.1498
     14 C          58.8849   90.1303    5.8826 C.3     1  UNL1        0.1280
     15 C          59.0415   91.4403    5.1688 C.3     1  UNL1        0.2144
     16 F          57.8850   92.0264    4.4143 F       1  UNL1       -0.2324
     17 C          62.9312   90.0750   12.9917 C.3     1  UNL1        0.2525
     18 O          61.5839   89.7160   12.4385 O.3     1  UNL1       -0.4714
     19 C          63.7909   84.5336   10.6882 C.3     1  UNL1        0.1531
     20 C          63.3704   84.0828   12.0557 C.ar    1  UNL1        0.0823
     21 N          63.4922   85.0161   13.2235 N.ar    1  UNL1       -0.2266
     22 C          63.0718   84.5654   14.5910 C.ar    1  UNL1        0.1998
     23 N          62.5295   83.1810   14.7905 N.ar    1  UNL1       -0.2093
     24 C          62.4077   82.2477   13.6226 C.ar    1  UNL1        0.1307
     25 C          62.8282   82.6985   12.2552 C.ar    1  UNL1        0.0253
     26 C          62.7064   81.7652   11.0873 C.3     1  UNL1        0.0353
     27 N          61.8654   80.8635   13.8222 N.pl3   1  UNL1       -0.2899
     28 C          62.7747   79.6768   13.7002 C.3     1  UNL1        0.1136
     29 C          60.4137   80.6660   14.1440 C.3     1  UNL1        0.1136
@<TRIPOS>BOND
     1    17    18    1
     2    18     1    1
     3     1     2   ar
     4     2     3   ar
     5     3    10    1
     6    10    11    2
     7    10    12   am
     8    12    14    1
     9    14    15    1
    10    15    16    1
    11     3     4   ar
    12     4     5   ar
    13     5     6   ar
    14     6     7   ar
    15     7    19    1
    16    19    20    1
    17    20    21   ar
    18    21    22   ar
    19    22    23   ar
    20    23    24   ar
    21    24    27    1
    22    27    28    1
    23    27    29    1
    24    24    25   ar
    25    25    26    1
    26     7     8   ar
    27     8     9   ar
    28     9     1   ar
    29     8     4   ar
    30    25    20   ar
    31    12    13    1
@<TRIPOS>MOLECULE
*****
 29 31 0 0 0
SMALL
GASTEIGER

@<TRIPOS>ATOM
      1 C          63.8313   86.3690   13.6386 C.ar    1  UNL1        0.1404
      2 C          63.1093   85.7083   12.5020 C.ar    1  UNL1        0.0430
      3 C          62.4454   86.5441   11.4480 C.ar    1  UNL1        0.0754
      4 C          62.5035   88.0406   11.5308 C.ar    1  UNL1        0.1033
      5 N          61.9477   89.1171   10.6463 N.ar    1  UNL1       -0.2238
      6 C          62.3263   90.4432   11.2364 C.ar    1  UNL1        0.1788
      7 N          63.1159   90.1863   12.4856 N.ar    1  UNL1       -0.3031
      8 C          63.2255   88.7014   12.6676 C.ar    1  UNL1        0.0824
      9 C          63.8894   87.8656   13.7214 C.ar    1  UNL1        0.0556
     10 C          61.7234   85.8832   10.3113 C.2     1  UNL1        0.2475
     11 O          61.8443   84.4023   10.1059 O.2     1  UNL1       -0.2701
     12 N          60.8806   86.7032    9.3802 N.am    1  UNL1       -0.2982
     13 H          60.8012   87.6752    9.5150 H       1  UNL1        0.1498
     14 C          60.1586   86.0423    8.2435 C.3     1  UNL1        0.1280
     15 C          59.0080   86.7388    7.5795 C.3     1  UNL1        0.2144
     16 F          58.9178   88.2358    7.6117 F       1  UNL1       -0.2324
     17 C          63.8784   84.2338   15.1180 C.3     1  UNL1        0.2525
     18 O          64.4952   85.5333   14.6926 O.3     1  UNL1       -0.4714
     19 C          63.6945   91.2309   13.3934 C.3     1  UNL1        0.1531
     20 C          65.1323   91.6343   13.2522 C.ar    1  UNL1        0.0823
     21 N          66.0766   91.4606   14.4046 N.ar    1  UNL1       -0.2266
     22 C          67.5144   91.8639   14.2635 C.ar    1  UNL1        0.1998
     23 N          68.0079   92.4410   12.9697 N.ar    1  UNL1       -0.2093
     24 C          67.0636   92.6146   11.8173 C.ar    1  UNL1        0.1307
     25 C          65.6258   92.2113   11.9585 C.ar    1  UNL1        0.0253
     26 C          64.6815   92.3849   10.8061 C.3     1  UNL1        0.0353
     27 N          67.5572   93.1917   10.5237 N.pl3   1  UNL1       -0.2899
     28 C          68.3684   92.3469    9.5867 C.3     1  UNL1        0.1136
     29 C          67.2395   94.6136   10.1672 C.3     1  UNL1        0.1136
@<TRIPOS>BOND
     1    17    18    1
     2    18     1    1
     3     1     2   ar
     4     2     3   ar
     5     3    10    1
     6    10    11    2
     7    10    12   am
     8    12    14    1
     9    14    15    1
    10    15    16    1
    11     3     4   ar
    12     4     5   ar
    13     5     6   ar
    14     6     7   ar
    15     7    19    1
    16    19    20    1
    17    20    21   ar
    18    21    22   ar
    19    22    23   ar
    20    23    24   ar
    21    24    27    1
    22    27    28    1
    23    27    29    1
    24    24    25   ar
    25    25    26    1
    26     7     8   ar
    27     8     9   ar
    28     9     1   ar
    29     8     4   ar
    30    25    20   ar
    31    12    13    1
@<TRIPOS>MOLECULE
*****
 29 31 0 0 0
SMALL
GASTEIGER

@<TRIPOS>ATOM
      1 C          63.8566   86.4832   15.1329 C.ar    1  UNL1        0.1404
      2 C          63.6070   85.2952   14.2519 C.ar    1  UNL1        0.0430
      3 C          63.2188   85.4941   12.8167 C.ar    1  UNL1        0.0754
      4 C          63.0802   86.8811   12.2626 C.ar    1  UNL1        0.1033
      5 N          62.7139   87.3847   10.8980 N.ar    1  UNL1       -0.2238
      6 C          62.7371   88.8841   10.9357 C.ar    1  UNL1        0.1788
      7 N          63.1178   89.3071   12.3235 N.ar    1  UNL1       -0.3031
      8 C          63.3299   88.0691   13.1436 C.ar    1  UNL1        0.0824
      9 C          63.7180   87.8702   14.5788 C.ar    1  UNL1        0.0556
     10 C          62.9692   84.3060   11.9357 C.2     1  UNL1        0.2475
     11 O          62.7001   84.5004   10.4729 O.2     1  UNL1       -0.2701
     12 N          62.9887   82.9236   12.5175 N.am    1  UNL1       -0.2982
     13 H          63.1652   82.7960   13.4776 H       1  UNL1        0.1498
     14 C          62.7390   81.7355   11.6365 C.3     1  UNL1        0.1280
     15 C          62.7415   80.3543   12.2214 C.3     1  UNL1        0.2144
     16 F          61.7696   79.9977   13.3069 F       1  UNL1       -0.2324
     17 C          63.1976   86.3275   17.6412 C.3     1  UNL1        0.2525
     18 O          64.2448   86.2844   16.5681 O.3     1  UNL1       -0.4714
     19 C          63.2612   90.7199   12.8065 C.3     1  UNL1        0.1531
     20 C          64.6180   91.3560   12.8722 C.ar    1  UNL1        0.0823
     21 N          65.4430   91.2360   14.1191 N.ar    1  UNL1       -0.2266
     22 C          66.7998   91.8721   14.1849 C.ar    1  UNL1        0.1998
     23 N          67.3317   92.6282   13.0036 N.ar    1  UNL1       -0.2093
     24 C          66.5067   92.7482   11.7566 C.ar    1  UNL1        0.1307
     25 C          65.1499   92.1121   11.6909 C.ar    1  UNL1        0.0253
     26 C          64.3249   92.2322   10.4440 C.3     1  UNL1        0.0353
     27 N          67.0386   93.5044   10.5754 N.pl3   1  UNL1       -0.2899
     28 C          67.8927   92.8050    9.5599 C.3     1  UNL1        0.1136
     29 C          66.7163   94.9599   10.4097 C.3     1  UNL1        0.1136
@<TRIPOS>BOND
     1    17    18    1
     2    18     1    1
     3     1     2   ar
     4     2     3   ar
     5     3    10    1
     6    10    11    2
     7    10    12   am
     8    12    14    1
     9    14    15    1
    10    15    16    1
    11     3     4   ar
    12     4     5   ar
    13     5     6   ar
    14     6     7   ar
    15     7    19    1
    16    19    20    1
    17    20    21   ar
    18    21    22   ar
    19    22    23   ar
    20    23    24   ar
    21    24    27    1
    22    27    28    1
    23    27    29    1
    24    24    25   ar
    25    25    26    1
    26     7     8   ar
    27     8     9   ar
    28     9     1   ar
    29     8     4   ar
    30    25    20   ar
    31    12    13    1
@<TRIPOS>MOLECULE
*****
 29 31 0 0 0
SMALL
GASTEIGER

@<TRIPOS>ATOM
      1 C          61.3821   88.7571   11.2049 C.ar    1  UNL1        0.1404
      2 C          60.4954   89.1109   10.0481 C.ar    1  UNL1        0.0430
      3 C          60.3918   88.1857    8.8720 C.ar    1  UNL1        0.0754
      4 C          61.1750   86.9065    8.8528 C.ar    1  UNL1        0.1033
      5 N          61.2741   85.8055    7.8390 N.ar    1  UNL1       -0.2238
      6 C          62.2222   84.7711    8.3693 C.ar    1  UNL1        0.1788
      7 N          62.7090   85.2329    9.7109 N.ar    1  UNL1       -0.3031
      8 C          62.0618   86.5527   10.0097 C.ar    1  UNL1        0.0824
      9 C          62.1653   87.4779   11.1858 C.ar    1  UNL1        0.0556
     10 C          59.5050   88.5396    7.7151 C.2     1  UNL1        0.2475
     11 O          58.3628   87.6412    7.3434 O.2     1  UNL1       -0.2701
     12 N          59.7604   89.7920    6.9300 N.am    1  UNL1       -0.2982
     13 H          60.5101   90.3816    7.1740 H       1  UNL1        0.1498
     14 C          58.8735   90.1458    5.7732 C.3     1  UNL1        0.1280
     15 C          58.8408   91.5536    5.2564 C.3     1  UNL1        0.2144
     16 F          57.5332   92.1834    4.8776 F       1  UNL1       -0.2324
     17 C          62.8334   90.0796   12.9062 C.3     1  UNL1        0.2525
     18 O          61.4857   89.6823   12.3811 O.3     1  UNL1       -0.4714
     19 C          63.6736   84.5030   10.5979 C.3     1  UNL1        0.1531
     20 C          63.1984   83.8992   11.8861 C.ar    1  UNL1        0.0823
     21 N          62.6290   82.5116   11.8989 N.ar    1  UNL1       -0.2266
     22 C          62.1538   81.9077   13.1871 C.ar    1  UNL1        0.1998
     23 N          62.2481   82.6915   14.4626 N.ar    1  UNL1       -0.2093
     24 C          62.8176   84.0792   14.4498 C.ar    1  UNL1        0.1307
     25 C          63.2927   84.6830   13.1616 C.ar    1  UNL1        0.0253
     26 C          63.8622   86.0706   13.1487 C.3     1  UNL1        0.0353
     27 N          62.9119   84.8629   15.7253 N.pl3   1  UNL1       -0.2899
     28 C          61.6650   85.3628   16.3923 C.3     1  UNL1        0.1136
     29 C          64.2533   85.1467   16.3336 C.3     1  UNL1        0.1136
@<TRIPOS>BOND
     1    17    18    1
     2    18     1    1
     3     1     2   ar
     4     2     3   ar
     5     3    10    1
     6    10    11    2
     7    10    12   am
     8    12    14    1
     9    14    15    1
    10    15    16    1
    11     3     4   ar
    12     4     5   ar
    13     5     6   ar
    14     6     7   ar
    15     7    19    1
    16    19    20    1
    17    20    21   ar
    18    21    22   ar
    19    22    23   ar
    20    23    24   ar
    21    24    27    1
    22    27    28    1
    23    27    29    1
    24    24    25   ar
    25    25    26    1
    26     7     8   ar
    27     8     9   ar
    28     9     1   ar
    29     8     4   ar
    30    25    20   ar
    31    12    13    1
