@<TRIPOS>MOLECULE
*****
 31 35 0 0 0
SMALL
GASTEIGER

@<TRIPOS>ATOM
      1 C          66.7074   92.6798   12.6720 C.3     1  UNL1        0.1063
      2 C          67.5745   92.7137   13.8955 C.3     1  UNL1        0.0632
      3 C          66.7246   92.3493   15.0764 C.3     1  UNL1        0.1888
      4 O          67.1861   92.2598   16.5008 O.3     1  UNL1       -0.3757
      5 C          65.3320   92.0902   14.5829 C.2     1  UNL1        0.2530
      6 O          64.1565   91.6961   15.4270 O.2     1  UNL1       -0.2722
      7 N          65.3214   92.2944   13.0969 N.am    1  UNL1       -0.2711
      8 H          66.4405   92.0056   17.0669 H       1  UNL1        0.2110
      9 C          66.6306   94.1968   10.5642 C.ar    1  UNL1        0.1384
     10 C          67.0719   94.4957    9.1620 C.ar    1  UNL1        0.0368
     11 C          68.0312   93.5766    8.4657 C.ar    1  UNL1        0.0054
     12 C          68.5492   92.3586    9.1714 C.ar    1  UNL1        0.0296
     13 C          68.1080   92.0596   10.5735 C.ar    1  UNL1        0.1406
     14 F          68.6260   90.8416   11.2792 F       1  UNL1       -0.2043
     15 C          67.1487   92.9787   11.2699 C.ar    1  UNL1        0.0572
     16 C          65.9740   96.5817   11.3583 C.3     1  UNL1        0.2525
     17 O          65.6713   95.1159   11.2606 O.3     1  UNL1       -0.4716
     18 C          64.1333   92.1404   12.1942 C.3     1  UNL1        0.1204
     19 C          63.5584   90.7790   11.9369 C.ar    1  UNL1       -0.0021
     20 C          63.9453   89.6238   12.8120 C.ar    1  UNL1        0.0005
     21 C          63.3704   88.2625   12.5546 C.ar    1  UNL1        0.0372
     22 C          62.4086   88.0563   11.4222 C.ar    1  UNL1        0.1453
     23 O          61.6843   86.8387   10.9295 O.2     1  UNL1       -0.4535
     24 C          60.8498   87.2413    9.7499 C.ar    1  UNL1        0.1453
     25 C          59.9270   86.4621    8.8605 C.ar    1  UNL1        0.0375
     26 C          59.2126   87.1493    7.7347 C.ar    1  UNL1        0.0031
     27 C          59.4211   88.6159    7.4984 C.ar    1  UNL1        0.0002
     28 C          60.3439   89.3951    8.3878 C.ar    1  UNL1        0.0031
     29 C          61.0583   88.7079    9.5136 C.ar    1  UNL1        0.0375
     30 C          62.0216   89.2115   10.5471 C.ar    1  UNL1        0.0372
     31 C          62.5966   90.5728   10.8044 C.ar    1  UNL1        0.0005
@<TRIPOS>BOND
     1    16    17    1
     2    17     9    1
     3     9    10   ar
     4    10    11   ar
     5    11    12   ar
     6    12    13   ar
     7    13    14    1
     8    13    15   ar
     9     1    15    1
    10     1     2    1
    11     2     3    1
    12     3     4    1
    13     3     5    1
    14     5     6    2
    15     5     7   am
    16     7    18    1
    17    18    19    1
    18    19    20   ar
    19    20    21   ar
    20    21    22   ar
    21    22    23   ar
    22    23    24   ar
    23    24    25   ar
    24    25    26   ar
    25    26    27   ar
    26    27    28   ar
    27    28    29   ar
    28    29    30   ar
    29    30    31   ar
    30    15     9   ar
    31     7     1    1
    32    31    19   ar
    33    30    22   ar
    34    29    24   ar
    35     4     8    1
@<TRIPOS>MOLECULE
*****
 31 35 0 0 0
SMALL
GASTEIGER

@<TRIPOS>ATOM
      1 C          61.2974   86.5434    9.5568 C.3     1  UNL1        0.1063
      2 C          60.3619   86.5260    8.3844 C.3     1  UNL1        0.0632
      3 C          59.6326   87.8363    8.3537 C.3     1  UNL1        0.1888
      4 O          58.5999   88.2473    7.3464 O.3     1  UNL1       -0.3757
      5 C          60.1173   88.6637    9.5072 C.2     1  UNL1        0.2530
      6 O          59.6544   90.0471    9.8560 O.2     1  UNL1       -0.2722
      7 N          61.1461   87.8646   10.2508 N.am    1  UNL1       -0.2711
      8 H          58.2851   89.1414    7.5524 H       1  UNL1        0.2110
      9 C          63.1237   84.7987    8.9477 C.ar    1  UNL1        0.1384
     10 C          64.0480   83.6897    9.3547 C.ar    1  UNL1        0.0368
     11 C          64.0704   83.2164   10.7778 C.ar    1  UNL1        0.0054
     12 C          63.1685   83.8519   11.7940 C.ar    1  UNL1        0.0296
     13 C          62.2441   84.9610   11.3870 C.ar    1  UNL1        0.1406
     14 F          61.3422   85.5966   12.4031 F       1  UNL1       -0.2043
     15 C          62.2217   85.4344    9.9638 C.ar    1  UNL1        0.0572
     16 C          62.3601   84.4858    6.4842 C.3     1  UNL1        0.2525
     17 O          63.1012   85.2722    7.5246 O.3     1  UNL1       -0.4716
     18 C          61.8928   88.3087   11.4736 C.3     1  UNL1        0.1204
     19 C          62.7563   89.5342   11.4214 C.ar    1  UNL1       -0.0021
     20 C          62.8334   90.3441   10.1612 C.ar    1  UNL1        0.0005
     21 C          63.6969   91.5695   10.1090 C.ar    1  UNL1        0.0372
     22 C          64.4832   91.9850   11.3170 C.ar    1  UNL1        0.1453
     23 O          65.4129   93.1363   11.5622 O.2     1  UNL1       -0.4535
     24 C          65.9103   93.0380   12.9739 C.ar    1  UNL1        0.1453
     25 C          66.8494   93.8955   13.7692 C.ar    1  UNL1        0.0375
     26 C          67.1663   93.5409   15.1918 C.ar    1  UNL1        0.0031
     27 C          66.5440   92.3288   15.8191 C.ar    1  UNL1        0.0002
     28 C          65.6048   91.4713   15.0238 C.ar    1  UNL1        0.0031
     29 C          65.2880   91.8258   13.6012 C.ar    1  UNL1        0.0375
     30 C          64.4060   91.1751   12.5771 C.ar    1  UNL1        0.0372
     31 C          63.5425   89.9497   12.6293 C.ar    1  UNL1        0.0005
@<TRIPOS>BOND
     1    16    17    1
     2    17     9    1
     3     9    10   ar
     4    10    11   ar
     5    11    12   ar
     6    12    13   ar
     7    13    14    1
     8    13    15   ar
     9     1    15    1
    10     1     2    1
    11     2     3    1
    12     3     4    1
    13     3     5    1
    14     5     6    2
    15     5     7   am
    16     7    18    1
    17    18    19    1
    18    19    20   ar
    19    20    21   ar
    20    21    22   ar
    21    22    23   ar
    22    23    24   ar
    23    24    25   ar
    24    25    26   ar
    25    26    27   ar
    26    27    28   ar
    27    28    29   ar
    28    29    30   ar
    29    30    31   ar
    30    15     9   ar
    31     7     1    1
    32    31    19   ar
    33    30    22   ar
    34    29    24   ar
    35     4     8    1
@<TRIPOS>MOLECULE
*****
 31 35 0 0 0
SMALL
GASTEIGER

@<TRIPOS>ATOM
      1 C          66.5281   92.7604   12.7099 C.3     1  UNL1        0.1063
      2 C          67.2822   92.9364   13.9945 C.3     1  UNL1        0.0632
      3 C          66.3713   92.5539   15.1231 C.3     1  UNL1        0.1888
      4 O          66.7169   92.5793   16.5825 O.3     1  UNL1       -0.3757
      5 C          65.0540   92.1415   14.5361 C.2     1  UNL1        0.2530
      6 O          63.8510   91.6821   15.3053 O.2     1  UNL1       -0.2722
      7 N          65.1509   92.2691   13.0447 N.am    1  UNL1       -0.2711
      8 H          65.9517   92.2853   17.1012 H       1  UNL1        0.2110
      9 C          66.5710   94.2188   10.5602 C.ar    1  UNL1        0.1384
     10 C          67.1009   94.4870    9.1827 C.ar    1  UNL1        0.0368
     11 C          68.1177   93.5650    8.5777 C.ar    1  UNL1        0.0054
     12 C          68.6046   92.3748    9.3500 C.ar    1  UNL1        0.0296
     13 C          68.0747   92.1066   10.7274 C.ar    1  UNL1        0.1406
     14 F          68.5616   90.9165   11.4997 F       1  UNL1       -0.2043
     15 C          67.0579   93.0286   11.3326 C.ar    1  UNL1        0.0572
     16 C          65.9140   96.5679   11.4543 C.3     1  UNL1        0.2525
     17 O          65.5543   95.1407   11.1653 O.3     1  UNL1       -0.4716
     18 C          64.0618   91.9598   12.0607 C.3     1  UNL1        0.1204
     19 C          63.5865   90.5476   11.8873 C.ar    1  UNL1       -0.0021
     20 C          62.7440   90.1800   10.7019 C.ar    1  UNL1        0.0005
     21 C          62.2688   88.7679   10.5286 C.ar    1  UNL1        0.0372
     22 C          62.6359   87.7234   11.5407 C.ar    1  UNL1        0.1453
     23 O          62.3162   86.2609   11.6350 O.2     1  UNL1       -0.4535
     24 C          62.9611   85.7247   12.8787 C.ar    1  UNL1        0.1453
     25 C          62.9870   84.3526   13.4842 C.ar    1  UNL1        0.0375
     26 C          63.7312   84.1116   14.7640 C.ar    1  UNL1        0.0031
     27 C          64.4495   85.2427   15.4383 C.ar    1  UNL1        0.0002
     28 C          64.4235   86.6148   14.8329 C.ar    1  UNL1        0.0031
     29 C          63.6793   86.8558   13.5530 C.ar    1  UNL1        0.0375
     30 C          63.4784   88.0910   12.7261 C.ar    1  UNL1        0.0372
     31 C          63.9536   89.5031   12.8994 C.ar    1  UNL1        0.0005
@<TRIPOS>BOND
     1    16    17    1
     2    17     9    1
     3     9    10   ar
     4    10    11   ar
     5    11    12   ar
     6    12    13   ar
     7    13    14    1
     8    13    15   ar
     9     1    15    1
    10     1     2    1
    11     2     3    1
    12     3     4    1
    13     3     5    1
    14     5     6    2
    15     5     7   am
    16     7    18    1
    17    18    19    1
    18    19    20   ar
    19    20    21   ar
    20    21    22   ar
    21    22    23   ar
    22    23    24   ar
    23    24    25   ar
    24    25    26   ar
    25    26    27   ar
    26    27    28   ar
    27    28    29   ar
    28    29    30   ar
    29    30    31   ar
    30    15     9   ar
    31     7     1    1
    32    31    19   ar
    33    30    22   ar
    34    29    24   ar
    35     4     8    1
@<TRIPOS>MOLECULE
*****
 31 35 0 0 0
SMALL
GASTEIGER

@<TRIPOS>ATOM
      1 C          61.5229   86.0843    9.9902 C.3     1  UNL1        0.1063
      2 C          60.5004   85.9967    8.8962 C.3     1  UNL1        0.0632
      3 C          59.7076   87.2701    8.8995 C.3     1  UNL1        0.1888
      4 O          58.5802   87.6092    7.9700 O.3     1  UNL1       -0.3757
      5 C          60.2402   88.1448    9.9955 C.2     1  UNL1        0.2530
      6 O          59.7389   89.5122   10.3544 O.2     1  UNL1       -0.2722
      7 N          61.3621   87.4120   10.6696 N.am    1  UNL1       -0.2711
      8 H          58.2392   88.4918    8.1839 H       1  UNL1        0.2110
      9 C          62.7110   84.6143   11.7727 C.ar    1  UNL1        0.1384
     10 C          63.7176   83.5596   12.1254 C.ar    1  UNL1        0.0368
     11 C          64.5426   82.9202   11.0481 C.ar    1  UNL1        0.0054
     12 C          64.3610   83.3355    9.6183 C.ar    1  UNL1        0.0296
     13 C          63.3545   84.3902    9.2656 C.ar    1  UNL1        0.1406
     14 F          63.1729   84.8055    7.8357 F       1  UNL1       -0.2043
     15 C          62.5294   85.0297   10.3428 C.ar    1  UNL1        0.0572
     16 C          62.0924   84.8641   14.2836 C.3     1  UNL1        0.2525
     17 O          61.8860   85.2538   12.8499 O.3     1  UNL1       -0.4716
     18 C          62.1796   87.9179   11.8209 C.3     1  UNL1        0.1204
     19 C          62.9204   89.2168   11.7012 C.ar    1  UNL1       -0.0021
     20 C          62.8238   90.0219   10.4393 C.ar    1  UNL1        0.0005
     21 C          63.5646   91.3207   10.3197 C.ar    1  UNL1        0.0372
     22 C          64.4020   91.8144   11.4620 C.ar    1  UNL1        0.1453
     23 O          65.2387   93.0475   11.6337 O.2     1  UNL1       -0.4535
     24 C          65.8525   93.0045   13.0017 C.ar    1  UNL1        0.1453
     25 C          66.7688   93.9496   13.7208 C.ar    1  UNL1        0.0375
     26 C          67.2277   93.6350   15.1137 C.ar    1  UNL1        0.0031
     27 C          66.7703   92.3754   15.7876 C.ar    1  UNL1        0.0002
     28 C          65.8541   91.4303   15.0685 C.ar    1  UNL1        0.0031
     29 C          65.3952   91.7448   13.6755 C.ar    1  UNL1        0.0375
     30 C          64.4987   91.0094   12.7240 C.ar    1  UNL1        0.0372
     31 C          63.7579   89.7106   12.8436 C.ar    1  UNL1        0.0005
@<TRIPOS>BOND
     1    16    17    1
     2    17     9    1
     3     9    10   ar
     4    10    11   ar
     5    11    12   ar
     6    12    13   ar
     7    13    14    1
     8    13    15   ar
     9     1    15    1
    10     1     2    1
    11     2     3    1
    12     3     4    1
    13     3     5    1
    14     5     6    2
    15     5     7   am
    16     7    18    1
    17    18    19    1
    18    19    20   ar
    19    20    21   ar
    20    21    22   ar
    21    22    23   ar
    22    23    24   ar
    23    24    25   ar
    24    25    26   ar
    25    26    27   ar
    26    27    28   ar
    27    28    29   ar
    28    29    30   ar
    29    30    31   ar
    30    15     9   ar
    31     7     1    1
    32    31    19   ar
    33    30    22   ar
    34    29    24   ar
    35     4     8    1
@<TRIPOS>MOLECULE
*****
 31 35 0 0 0
SMALL
GASTEIGER

@<TRIPOS>ATOM
      1 C          63.3778   84.6123   12.7059 C.3     1  UNL1        0.1063
      2 C          64.2107   83.4893   12.1627 C.3     1  UNL1        0.0632
      3 C          64.0907   83.5042   10.6676 C.3     1  UNL1        0.1888
      4 O          64.7602   82.5538    9.7198 O.3     1  UNL1       -0.3757
      5 C          63.1835   84.6365   10.2867 C.2     1  UNL1        0.2530
      6 O          62.7867   85.0172    8.8912 O.2     1  UNL1       -0.2722
      7 N          62.7430   85.3213   11.5465 N.am    1  UNL1       -0.2711
      8 H          64.5175   82.7812    8.8086 H       1  UNL1        0.2110
      9 C          62.2818   84.1623   15.0181 C.ar    1  UNL1        0.1384
     10 C          62.1132   84.5144   16.4664 C.ar    1  UNL1        0.0368
     11 C          62.8722   85.6687   17.0508 C.ar    1  UNL1        0.0054
     12 C          63.7997   86.4709   16.1869 C.ar    1  UNL1        0.0296
     13 C          63.9682   86.1187   14.7386 C.ar    1  UNL1        0.1406
     14 F          64.8957   86.9209   13.8747 F       1  UNL1       -0.2043
     15 C          63.2093   84.9644   14.1542 C.ar    1  UNL1        0.0572
     16 C          62.1496   81.6461   14.3847 C.3     1  UNL1        0.2525
     17 O          61.5228   83.0080   14.4337 O.3     1  UNL1       -0.4716
     18 C          61.8281   86.5070   11.6318 C.3     1  UNL1        0.1204
     19 C          62.3630   87.8864   11.3841 C.ar    1  UNL1       -0.0021
     20 C          62.0270   88.6036   10.1103 C.ar    1  UNL1        0.0005
     21 C          62.5619   89.9829    9.8626 C.ar    1  UNL1        0.0372
     22 C          63.4328   90.6450   10.8889 C.ar    1  UNL1        0.1453
     23 O          64.1009   91.9876   10.9227 O.2     1  UNL1       -0.4535
     24 C          64.8498   92.1002   12.2175 C.ar    1  UNL1        0.1453
     25 C          65.6921   93.1974   12.7977 C.ar    1  UNL1        0.0375
     26 C          66.3291   93.0216   14.1442 C.ar    1  UNL1        0.0031
     27 C          66.1239   91.7485   14.9106 C.ar    1  UNL1        0.0002
     28 C          65.2816   90.6513   14.3304 C.ar    1  UNL1        0.0031
     29 C          64.6446   90.8272   12.9839 C.ar    1  UNL1        0.0375
     30 C          63.7688   89.9279   12.1627 C.ar    1  UNL1        0.0372
     31 C          63.2339   88.5485   12.4103 C.ar    1  UNL1        0.0005
@<TRIPOS>BOND
     1    16    17    1
     2    17     9    1
     3     9    10   ar
     4    10    11   ar
     5    11    12   ar
     6    12    13   ar
     7    13    14    1
     8    13    15   ar
     9     1    15    1
    10     1     2    1
    11     2     3    1
    12     3     4    1
    13     3     5    1
    14     5     6    2
    15     5     7   am
    16     7    18    1
    17    18    19    1
    18    19    20   ar
    19    20    21   ar
    20    21    22   ar
    21    22    23   ar
    22    23    24   ar
    23    24    25   ar
    24    25    26   ar
    25    26    27   ar
    26    27    28   ar
    27    28    29   ar
    28    29    30   ar
    29    30    31   ar
    30    15     9   ar
    31     7     1    1
    32    31    19   ar
    33    30    22   ar
    34    29    24   ar
    35     4     8    1
@<TRIPOS>MOLECULE
*****
 31 35 0 0 0
SMALL
GASTEIGER

@<TRIPOS>ATOM
      1 C          62.5495   86.0669   11.7761 C.3     1  UNL1        0.1063
      2 C          62.7719   84.7216   12.4013 C.3     1  UNL1        0.0632
      3 C          63.5876   84.9173   13.6447 C.3     1  UNL1        0.1888
      4 O          64.0418   83.8366   14.5805 O.3     1  UNL1       -0.3757
      5 C          63.8694   86.3836   13.7882 C.2     1  UNL1        0.2530
      6 O          64.6548   87.0266   14.8925 O.2     1  UNL1       -0.2722
      7 N          63.2278   87.0941   12.6333 N.am    1  UNL1       -0.2711
      8 H          64.5533   84.2299   15.3048 H       1  UNL1        0.2110
      9 C          60.5783   87.2302   10.5468 C.ar    1  UNL1        0.1384
     10 C          59.8121   87.5008    9.2859 C.ar    1  UNL1        0.0368
     11 C          60.2510   86.8785    7.9936 C.ar    1  UNL1        0.0054
     12 C          61.4559   85.9858    7.9621 C.ar    1  UNL1        0.0296
     13 C          62.2221   85.7152    9.2229 C.ar    1  UNL1        0.1406
     14 F          63.4271   84.8224    9.1914 F       1  UNL1       -0.2043
     15 C          61.7833   86.3374   10.5153 C.ar    1  UNL1        0.0572
     16 C          59.6646   89.2750   11.8635 C.3     1  UNL1        0.2525
     17 O          60.1395   87.8524   11.8392 O.3     1  UNL1       -0.4716
     18 C          63.2590   88.5722   12.3801 C.3     1  UNL1        0.1204
     19 C          63.7228   89.5080   13.4568 C.ar    1  UNL1       -0.0021
     20 C          62.8124   89.8462   14.5999 C.ar    1  UNL1        0.0005
     21 C          63.2763   90.7820   15.6766 C.ar    1  UNL1        0.0372
     22 C          64.6505   91.3795   15.6101 C.ar    1  UNL1        0.1453
     23 O          65.3785   92.3260   16.5180 O.2     1  UNL1       -0.4535
     24 C          66.7388   92.5727   15.9359 C.ar    1  UNL1        0.1453
     25 C          67.8893   93.4177   16.3965 C.ar    1  UNL1        0.0375
     26 C          69.1526   93.4688   15.5894 C.ar    1  UNL1        0.0031
     27 C          69.2654   92.6748   14.3217 C.ar    1  UNL1        0.0002
     28 C          68.1148   91.8298   13.8612 C.ar    1  UNL1        0.0031
     29 C          66.8516   91.7787   14.6683 C.ar    1  UNL1        0.0375
     30 C          65.5609   91.0413   14.4669 C.ar    1  UNL1        0.0372
     31 C          65.0971   90.1055   13.3903 C.ar    1  UNL1        0.0005
@<TRIPOS>BOND
     1    16    17    1
     2    17     9    1
     3     9    10   ar
     4    10    11   ar
     5    11    12   ar
     6    12    13   ar
     7    13    14    1
     8    13    15   ar
     9     1    15    1
    10     1     2    1
    11     2     3    1
    12     3     4    1
    13     3     5    1
    14     5     6    2
    15     5     7   am
    16     7    18    1
    17    18    19    1
    18    19    20   ar
    19    20    21   ar
    20    21    22   ar
    21    22    23   ar
    22    23    24   ar
    23    24    25   ar
    24    25    26   ar
    25    26    27   ar
    26    27    28   ar
    27    28    29   ar
    28    29    30   ar
    29    30    31   ar
    30    15     9   ar
    31     7     1    1
    32    31    19   ar
    33    30    22   ar
    34    29    24   ar
    35     4     8    1
@<TRIPOS>MOLECULE
*****
 31 35 0 0 0
SMALL
GASTEIGER

@<TRIPOS>ATOM
      1 C          65.6496   91.8164   14.0124 C.3     1  UNL1        0.1063
      2 C          65.5901   92.8357   15.1112 C.3     1  UNL1        0.0632
      3 C          64.6580   92.3234   16.1689 C.3     1  UNL1        0.1888
      4 O          64.3046   93.0241   17.4472 O.3     1  UNL1       -0.3757
      5 C          64.1414   90.9874   15.7238 C.2     1  UNL1        0.2530
      6 O          63.1806   90.1175   16.4788 O.2     1  UNL1       -0.2722
      7 N          64.7542   90.6740   14.3910 N.am    1  UNL1       -0.2711
      8 H          63.6825   92.4786   17.9536 H       1  UNL1        0.2110
      9 C          65.7832   92.1804   11.4434 C.ar    1  UNL1        0.1384
     10 C          66.5954   92.2850   10.1867 C.ar    1  UNL1        0.0368
     11 C          68.0863   92.1302   10.2423 C.ar    1  UNL1        0.0054
     12 C          68.7650   91.8707   11.5545 C.ar    1  UNL1        0.0296
     13 C          67.9528   91.7661   12.8113 C.ar    1  UNL1        0.1406
     14 F          68.6315   91.5066   14.1235 F       1  UNL1       -0.2043
     15 C          66.4618   91.9210   12.7557 C.ar    1  UNL1        0.0572
     16 C          63.5227   91.7754   10.2284 C.3     1  UNL1        0.2525
     17 O          64.2922   92.3353   11.3879 O.3     1  UNL1       -0.4716
     18 C          64.5139   89.4357   13.5793 C.3     1  UNL1        0.1204
     19 C          63.2670   89.3096   12.7550 C.ar    1  UNL1       -0.0021
     20 C          62.0919   90.2000   13.0313 C.ar    1  UNL1        0.0005
     21 C          60.8451   90.0738   12.2070 C.ar    1  UNL1        0.0372
     22 C          60.7734   89.0571   11.1063 C.ar    1  UNL1        0.1453
     23 O          59.6863   88.7048   10.1347 O.2     1  UNL1       -0.4535
     24 C          60.1894   87.5966    9.2580 C.ar    1  UNL1        0.1453
     25 C          59.5552   86.8473    8.1238 C.ar    1  UNL1        0.0375
     26 C          60.3190   85.7656    7.4194 C.ar    1  UNL1        0.0031
     27 C          61.7171   85.4330    7.8491 C.ar    1  UNL1        0.0002
     28 C          62.3514   86.1823    8.9833 C.ar    1  UNL1        0.0031
     29 C          61.5876   87.2640    9.6877 C.ar    1  UNL1        0.0375
     30 C          61.9484   88.1667   10.8300 C.ar    1  UNL1        0.0372
     31 C          63.1952   88.2929   11.6543 C.ar    1  UNL1        0.0005
@<TRIPOS>BOND
     1    16    17    1
     2    17     9    1
     3     9    10   ar
     4    10    11   ar
     5    11    12   ar
     6    12    13   ar
     7    13    14    1
     8    13    15   ar
     9     1    15    1
    10     1     2    1
    11     2     3    1
    12     3     4    1
    13     3     5    1
    14     5     6    2
    15     5     7   am
    16     7    18    1
    17    18    19    1
    18    19    20   ar
    19    20    21   ar
    20    21    22   ar
    21    22    23   ar
    22    23    24   ar
    23    24    25   ar
    24    25    26   ar
    25    26    27   ar
    26    27    28   ar
    27    28    29   ar
    28    29    30   ar
    29    30    31   ar
    30    15     9   ar
    31     7     1    1
    32    31    19   ar
    33    30    22   ar
    34    29    24   ar
    35     4     8    1
@<TRIPOS>MOLECULE
*****
 31 35 0 0 0
SMALL
GASTEIGER

@<TRIPOS>ATOM
      1 C          66.2593   93.5628   12.4429 C.3     1  UNL1        0.1063
      2 C          67.0269   93.5830   13.7314 C.3     1  UNL1        0.0632
      3 C          66.2950   92.7255   14.7207 C.3     1  UNL1        0.1888
      4 O          66.7102   92.4640   16.1382 O.3     1  UNL1       -0.3757
      5 C          65.0748   92.1751   14.0437 C.2     1  UNL1        0.2530
      6 O          64.0557   91.2669   14.6652 O.2     1  UNL1       -0.2722
      7 N          65.0527   92.6926   12.6360 N.am    1  UNL1       -0.2711
      8 H          66.0641   91.8772   16.5614 H       1  UNL1        0.2110
      9 C          67.2166   93.5272   10.0279 C.ar    1  UNL1        0.1384
     10 C          67.5898   94.2501    8.7677 C.ar    1  UNL1        0.0368
     11 C          67.3789   95.7314    8.6624 C.ar    1  UNL1        0.0054
     12 C          66.7948   96.4899    9.8171 C.ar    1  UNL1        0.0296
     13 C          66.4216   95.7670   11.0774 C.ar    1  UNL1        0.1406
     14 F          65.8375   96.5254   12.2322 F       1  UNL1       -0.2043
     15 C          66.6325   94.2856   11.1828 C.ar    1  UNL1        0.0572
     16 C          68.6067   91.5080   10.8884 C.3     1  UNL1        0.2525
     17 O          67.4274   92.0459   10.1333 O.3     1  UNL1       -0.4716
     18 C          64.0077   92.3927   11.6026 C.3     1  UNL1        0.1204
     19 C          63.4535   91.0044   11.4773 C.ar    1  UNL1       -0.0021
     20 C          63.8793   89.9370   12.4414 C.ar    1  UNL1        0.0005
     21 C          63.3251   88.5488   12.3161 C.ar    1  UNL1        0.0372
     22 C          62.3451   88.2279   11.2268 C.ar    1  UNL1        0.1453
     23 O          61.6342   86.9597   10.8577 O.2     1  UNL1       -0.4535
     24 C          60.7691   87.2432    9.6656 C.ar    1  UNL1        0.1453
     25 C          59.8437   86.3735    8.8674 C.ar    1  UNL1        0.0375
     26 C          59.0944   86.9472    7.7016 C.ar    1  UNL1        0.0031
     27 C          59.2705   88.3908    7.3338 C.ar    1  UNL1        0.0002
     28 C          60.1960   89.2605    8.1320 C.ar    1  UNL1        0.0031
     29 C          60.9452   88.6867    9.2979 C.ar    1  UNL1        0.0375
     30 C          61.9192   89.2953   10.2627 C.ar    1  UNL1        0.0372
     31 C          62.4734   90.6835   10.3880 C.ar    1  UNL1        0.0005
@<TRIPOS>BOND
     1    16    17    1
     2    17     9    1
     3     9    10   ar
     4    10    11   ar
     5    11    12   ar
     6    12    13   ar
     7    13    14    1
     8    13    15   ar
     9     1    15    1
    10     1     2    1
    11     2     3    1
    12     3     4    1
    13     3     5    1
    14     5     6    2
    15     5     7   am
    16     7    18    1
    17    18    19    1
    18    19    20   ar
    19    20    21   ar
    20    21    22   ar
    21    22    23   ar
    22    23    24   ar
    23    24    25   ar
    24    25    26   ar
    25    26    27   ar
    26    27    28   ar
    27    28    29   ar
    28    29    30   ar
    29    30    31   ar
    30    15     9   ar
    31     7     1    1
    32    31    19   ar
    33    30    22   ar
    34    29    24   ar
    35     4     8    1
@<TRIPOS>MOLECULE
*****
 31 35 0 0 0
SMALL
GASTEIGER

@<TRIPOS>ATOM
      1 C          62.0948   86.3420   10.9797 C.3     1  UNL1        0.1063
      2 C          61.0604   86.7057    9.9561 C.3     1  UNL1        0.0632
      3 C          60.6554   88.1305   10.1920 C.3     1  UNL1        0.1888
      4 O          59.6440   88.9027    9.3979 O.3     1  UNL1       -0.3757
      5 C          61.4396   88.6476   11.3615 C.2     1  UNL1        0.2530
      6 O          61.3499   90.0277   11.9423 O.2     1  UNL1       -0.2722
      7 N          62.3291   87.5423   11.8483 N.am    1  UNL1       -0.2711
      8 H          59.5688   89.8010    9.7564 H       1  UNL1        0.2110
      9 C          62.7348   84.2748   12.4174 C.ar    1  UNL1        0.1384
     10 C          63.4154   82.9446   12.5493 C.ar    1  UNL1        0.0368
     11 C          64.1363   82.3514   11.3753 C.ar    1  UNL1        0.0054
     12 C          64.1767   83.0884   10.0695 C.ar    1  UNL1        0.0296
     13 C          63.4962   84.4186    9.9376 C.ar    1  UNL1        0.1406
     14 F          63.5367   85.1555    8.6317 F       1  UNL1       -0.2043
     15 C          62.7753   85.0119   11.1115 C.ar    1  UNL1        0.0572
     16 C          62.3333   84.4026   14.9811 C.3     1  UNL1        0.2525
     17 O          62.0139   84.8681   13.5914 O.3     1  UNL1       -0.4716
     18 C          63.2851   87.6230   13.0013 C.3     1  UNL1        0.1204
     19 C          63.8614   88.9473   13.4066 C.ar    1  UNL1       -0.0021
     20 C          63.9951   89.2940   14.8598 C.ar    1  UNL1        0.0005
     21 C          64.5713   90.6183   15.2650 C.ar    1  UNL1        0.0372
     22 C          65.0139   91.5959   14.2169 C.ar    1  UNL1        0.1453
     23 O          65.6146   92.9670   14.3130 O.2     1  UNL1       -0.4535
     24 C          65.8522   93.4677   12.9191 C.ar    1  UNL1        0.1453
     25 C          66.4232   94.7532   12.3981 C.ar    1  UNL1        0.0375
     26 C          66.5403   94.9770   10.9196 C.ar    1  UNL1        0.0031
     27 C          66.0864   93.9153    9.9620 C.ar    1  UNL1        0.0002
     28 C          65.5154   92.6299   10.4830 C.ar    1  UNL1        0.0031
     29 C          65.3983   92.4061   11.9616 C.ar    1  UNL1        0.0375
     30 C          64.8802   91.2492   12.7637 C.ar    1  UNL1        0.0372
     31 C          64.3040   89.9250   12.3585 C.ar    1  UNL1        0.0005
@<TRIPOS>BOND
     1    16    17    1
     2    17     9    1
     3     9    10   ar
     4    10    11   ar
     5    11    12   ar
     6    12    13   ar
     7    13    14    1
     8    13    15   ar
     9     1    15    1
    10     1     2    1
    11     2     3    1
    12     3     4    1
    13     3     5    1
    14     5     6    2
    15     5     7   am
    16     7    18    1
    17    18    19    1
    18    19    20   ar
    19    20    21   ar
    20    21    22   ar
    21    22    23   ar
    22    23    24   ar
    23    24    25   ar
    24    25    26   ar
    25    26    27   ar
    26    27    28   ar
    27    28    29   ar
    28    29    30   ar
    29    30    31   ar
    30    15     9   ar
    31     7     1    1
    32    31    19   ar
    33    30    22   ar
    34    29    24   ar
    35     4     8    1
