@<TRIPOS>MOLECULE
*****
 22 24 0 0 0
SMALL
GASTEIGER

@<TRIPOS>ATOM
      1 N          62.2281   85.4784   12.6927 N.pl3   1  UNL1       -0.2166
      2 H          61.6137   85.4815   13.4619 H       1  UNL1        0.2923
      3 C          62.0072   86.4279   11.5525 C.2     1  UNL1        0.3276
      4 N          61.2858   85.9662   10.3211 N.2     1  UNL1       -0.0164
      5 C          61.0650   86.9156    9.1811 C.2     1  UNL1        0.3383
      6 N          61.5655   88.3267    9.2724 N.2     1  UNL1       -0.2017
      7 C          62.2870   88.7883   10.5038 C.2     1  UNL1        0.0940
      8 C          62.8897   90.1100   10.8779 C.2     1  UNL1        0.0075
      9 C          62.8977   91.3470   10.0296 C.3     1  UNL1        0.0336
     10 C          63.4831   89.9774   12.2491 C.2     1  UNL1        0.0523
     11 C          64.1886   91.0587   13.0128 C.3     1  UNL1        0.0514
     12 N          63.2471   88.5738   12.7226 N.2     1  UNL1       -0.2589
     13 C          62.5078   87.8389   11.6439 C.3     1  UNL1        0.2471
     14 C          63.3851   84.5243   12.6607 C.3     1  UNL1        0.2258
     15 C          63.8899   83.0902   10.0745 C.3     1  UNL1        0.0308
     16 C          63.3899   82.3313   11.2678 C.ar    1  UNL1       -0.0223
     17 C          63.1423   80.8551   11.1680 C.ar    1  UNL1       -0.0045
     18 C          62.6424   80.0962   12.3613 C.ar    1  UNL1       -0.0007
     19 C          62.3900   80.8132   13.6544 C.ar    1  UNL1       -0.0045
     20 C          62.6376   82.2893   13.7542 C.ar    1  UNL1       -0.0223
     21 C          62.3852   83.0063   15.0473 C.3     1  UNL1        0.0308
     22 C          63.1376   83.0483   12.5609 C.ar    1  UNL1        0.0162
@<TRIPOS>BOND
     1    15    16    1
     2    16    17   ar
     3    17    18   ar
     4    18    19   ar
     5    19    20   ar
     6    20    21    1
     7    20    22   ar
     8    22    14    1
     9    14     1    1
    10     1     3    1
    11     3     4    2
    12     4     5    1
    13     5     6    2
    14     6     7    1
    15     7     8    2
    16     8     9    1
    17     8    10    1
    18    10    11    1
    19    10    12    2
    20    12    13    1
    21    22    16   ar
    22    13     3    1
    23    13     7    1
    24     1     2    1
@<TRIPOS>MOLECULE
*****
 22 24 0 0 0
SMALL
GASTEIGER

@<TRIPOS>ATOM
      1 N          62.2487   85.4463   12.6979 N.pl3   1  UNL1       -0.2166
      2 H          61.6390   85.4591   13.4709 H       1  UNL1        0.2923
      3 C          62.0299   86.3920   11.5543 C.2     1  UNL1        0.3276
      4 N          61.3247   85.9219   10.3167 N.2     1  UNL1       -0.0164
      5 C          61.1059   86.8677    9.1732 C.2     1  UNL1        0.3383
      6 N          61.5925   88.2834    9.2672 N.2     1  UNL1       -0.2017
      7 C          62.2978   88.7535   10.5048 C.2     1  UNL1        0.0940
      8 C          62.8846   90.0812   10.8826 C.2     1  UNL1        0.0075
      9 C          62.8892   91.3171   10.0326 C.3     1  UNL1        0.0336
     10 C          63.4660   89.9561   12.2597 C.2     1  UNL1        0.0523
     11 C          64.1541   91.0449   13.0285 C.3     1  UNL1        0.0514
     12 N          63.2385   88.5510   12.7330 N.2     1  UNL1       -0.2589
     13 C          62.5165   87.8078   11.6483 C.3     1  UNL1        0.2471
     14 C          63.3963   84.4809   12.6639 C.3     1  UNL1        0.2258
     15 C          62.3641   83.0241   15.0747 C.3     1  UNL1        0.0308
     16 C          62.6175   82.2774   13.7987 C.ar    1  UNL1       -0.0223
     17 C          62.3549   80.8022   13.7281 C.ar    1  UNL1       -0.0045
     18 C          62.6084   80.0555   12.4522 C.ar    1  UNL1       -0.0007
     19 C          63.1245   80.7839   11.2467 C.ar    1  UNL1       -0.0045
     20 C          63.3871   82.2590   11.3173 C.ar    1  UNL1       -0.0223
     21 C          63.9032   82.9875   10.1119 C.3     1  UNL1        0.0308
     22 C          63.1336   83.0058   12.5933 C.ar    1  UNL1        0.0162
@<TRIPOS>BOND
     1    15    16    1
     2    16    17   ar
     3    17    18   ar
     4    18    19   ar
     5    19    20   ar
     6    20    21    1
     7    20    22   ar
     8    22    14    1
     9    14     1    1
    10     1     3    1
    11     3     4    2
    12     4     5    1
    13     5     6    2
    14     6     7    1
    15     7     8    2
    16     8     9    1
    17     8    10    1
    18    10    11    1
    19    10    12    2
    20    12    13    1
    21    22    16   ar
    22    13     3    1
    23    13     7    1
    24     1     2    1
@<TRIPOS>MOLECULE
*****
 22 24 0 0 0
SMALL
GASTEIGER

@<TRIPOS>ATOM
      1 N          62.8041   85.6164   12.4853 N.pl3   1  UNL1       -0.2166
      2 H          62.4574   86.1645   13.2260 H       1  UNL1        0.2923
      3 C          62.4129   85.9318   11.0719 C.2     1  UNL1        0.3276
      4 N          62.8417   85.0268    9.9553 N.2     1  UNL1       -0.0164
      5 C          62.4505   85.3422    8.5420 C.2     1  UNL1        0.3383
      6 N          61.6305   86.5627    8.2454 N.2     1  UNL1       -0.2017
      7 C          61.2016   87.4677    9.3620 C.2     1  UNL1        0.0940
      8 C          60.3950   88.7323    9.3756 C.2     1  UNL1        0.0075
      9 C          59.8001   89.4115    8.1778 C.3     1  UNL1        0.0336
     10 C          60.2877   89.1984   10.7973 C.2     1  UNL1        0.0523
     11 C          59.5666   90.4256   11.2707 C.3     1  UNL1        0.0514
     12 N          61.0280   88.2219   11.6624 N.2     1  UNL1       -0.2589
     13 C          61.5928   87.1523   10.7753 C.3     1  UNL1        0.2471
     14 C          63.7235   84.4660   12.7700 C.3     1  UNL1        0.2258
     15 C          62.1820   83.8354   15.2652 C.3     1  UNL1        0.0308
     16 C          62.3912   82.7753   14.2249 C.ar    1  UNL1       -0.0223
     17 C          61.8296   81.3999   14.4321 C.ar    1  UNL1       -0.0045
     18 C          62.0389   80.3398   13.3917 C.ar    1  UNL1       -0.0007
     19 C          62.8097   80.6550   12.1442 C.ar    1  UNL1       -0.0045
     20 C          63.3712   82.0304   11.9369 C.ar    1  UNL1       -0.0223
     21 C          64.1420   82.3457   10.6893 C.3     1  UNL1        0.0308
     22 C          63.1620   83.0906   12.9773 C.ar    1  UNL1        0.0162
@<TRIPOS>BOND
     1    15    16    1
     2    16    17   ar
     3    17    18   ar
     4    18    19   ar
     5    19    20   ar
     6    20    21    1
     7    20    22   ar
     8    22    14    1
     9    14     1    1
    10     1     3    1
    11     3     4    2
    12     4     5    1
    13     5     6    2
    14     6     7    1
    15     7     8    2
    16     8     9    1
    17     8    10    1
    18    10    11    1
    19    10    12    2
    20    12    13    1
    21    22    16   ar
    22    13     3    1
    23    13     7    1
    24     1     2    1
@<TRIPOS>MOLECULE
*****
 22 24 0 0 0
SMALL
GASTEIGER

@<TRIPOS>ATOM
      1 N          63.5032   88.7339   13.0648 N.pl3   1  UNL1       -0.2166
      2 H          64.1140   88.5251   13.8082 H       1  UNL1        0.2923
      3 C          62.9790   87.6319   12.1925 C.2     1  UNL1        0.3276
      4 N          62.3287   87.9585   10.8809 N.2     1  UNL1       -0.0164
      5 C          61.8045   86.8565   10.0087 C.2     1  UNL1        0.3383
      6 N          61.9307   85.4279   10.4481 N.2     1  UNL1       -0.2017
      7 C          62.5811   85.1013   11.7597 C.2     1  UNL1        0.0940
      8 C          62.8455   83.7969   12.4516 C.2     1  UNL1        0.0075
      9 C          62.4855   82.4357   11.9345 C.3     1  UNL1        0.0336
     10 C          63.5331   84.0928   13.7515 C.2     1  UNL1        0.0523
     11 C          63.9814   83.0794   14.7625 C.3     1  UNL1        0.0514
     12 N          63.6936   85.5800   13.8630 N.2     1  UNL1       -0.2589
     13 C          63.1052   86.2033   12.6319 C.3     1  UNL1        0.2471
     14 C          63.0968   90.1542   12.8044 C.3     1  UNL1        0.2258
     15 C          65.0797   91.0783   14.8573 C.3     1  UNL1        0.0308
     16 C          65.1241   91.6380   13.4663 C.ar    1  UNL1       -0.0223
     17 C          66.1601   92.6598   13.1017 C.ar    1  UNL1       -0.0045
     18 C          66.2046   93.2194   11.7108 C.ar    1  UNL1       -0.0007
     19 C          65.2131   92.7573   10.6844 C.ar    1  UNL1       -0.0045
     20 C          64.1772   91.7356   11.0489 C.ar    1  UNL1       -0.0223
     21 C          63.1858   91.2735   10.0225 C.3     1  UNL1        0.0308
     22 C          64.1327   91.1759   12.4399 C.ar    1  UNL1        0.0162
@<TRIPOS>BOND
     1    15    16    1
     2    16    17   ar
     3    17    18   ar
     4    18    19   ar
     5    19    20   ar
     6    20    21    1
     7    20    22   ar
     8    22    14    1
     9    14     1    1
    10     1     3    1
    11     3     4    2
    12     4     5    1
    13     5     6    2
    14     6     7    1
    15     7     8    2
    16     8     9    1
    17     8    10    1
    18    10    11    1
    19    10    12    2
    20    12    13    1
    21    22    16   ar
    22    13     3    1
    23    13     7    1
    24     1     2    1
@<TRIPOS>MOLECULE
*****
 22 24 0 0 0
SMALL
GASTEIGER

@<TRIPOS>ATOM
      1 N          64.5464   88.1170   14.5567 N.pl3   1  UNL1       -0.2166
      2 H          65.4137   87.9429   14.1247 H       1  UNL1        0.2923
      3 C          63.8034   86.9984   15.2251 C.2     1  UNL1        0.3276
      4 N          63.2728   87.1766   16.6167 N.2     1  UNL1       -0.0164
      5 C          62.5299   86.0580   17.2850 C.2     1  UNL1        0.3383
      6 N          62.3176   84.7611   16.5618 N.2     1  UNL1       -0.2017
      7 C          62.8482   84.5829   15.1702 C.2     1  UNL1        0.0940
      8 C          62.7935   83.4273   14.2154 C.2     1  UNL1        0.0075
      9 C          62.1437   82.1003   14.4737 C.3     1  UNL1        0.0336
     10 C          63.5026   83.8317   12.9569 C.2     1  UNL1        0.0523
     11 C          63.6864   82.9801   11.7359 C.3     1  UNL1        0.0514
     12 N          63.9956   85.2373   13.1340 N.2     1  UNL1       -0.2589
     13 C          63.5911   85.7015   14.5018 C.3     1  UNL1        0.2471
     14 C          63.9678   89.5009   14.5466 C.3     1  UNL1        0.2258
     15 C          62.4168   89.3421   11.9835 C.3     1  UNL1        0.0308
     16 C          63.5091   90.3586   12.1374 C.ar    1  UNL1       -0.0223
     17 C          63.8259   91.2957   11.0098 C.ar    1  UNL1       -0.0045
     18 C          64.9181   92.3122   11.1638 C.ar    1  UNL1       -0.0007
     19 C          65.6936   92.3916   12.4453 C.ar    1  UNL1       -0.0045
     20 C          65.3768   91.4546   13.5729 C.ar    1  UNL1       -0.0223
     21 C          66.1523   91.5340   14.8544 C.3     1  UNL1        0.0308
     22 C          64.2845   90.4380   13.4190 C.ar    1  UNL1        0.0162
@<TRIPOS>BOND
     1    15    16    1
     2    16    17   ar
     3    17    18   ar
     4    18    19   ar
     5    19    20   ar
     6    20    21    1
     7    20    22   ar
     8    22    14    1
     9    14     1    1
    10     1     3    1
    11     3     4    2
    12     4     5    1
    13     5     6    2
    14     6     7    1
    15     7     8    2
    16     8     9    1
    17     8    10    1
    18    10    11    1
    19    10    12    2
    20    12    13    1
    21    22    16   ar
    22    13     3    1
    23    13     7    1
    24     1     2    1
@<TRIPOS>MOLECULE
*****
 22 24 0 0 0
SMALL
GASTEIGER

@<TRIPOS>ATOM
      1 N          63.8032   85.1658   13.5425 N.pl3   1  UNL1       -0.2166
      2 H          64.7199   84.8867   13.3165 H       1  UNL1        0.2923
      3 C          63.5556   86.0217   14.7493 C.2     1  UNL1        0.3276
      4 N          63.1435   85.3893   16.0455 N.2     1  UNL1       -0.0164
      5 C          62.8960   86.2452   17.2522 C.2     1  UNL1        0.3383
      6 N          63.0606   87.7335   17.1626 N.2     1  UNL1       -0.2017
      7 C          63.4728   88.3658   15.8664 C.2     1  UNL1        0.0940
      8 C          63.7130   89.7947   15.4784 C.2     1  UNL1        0.0075
      9 C          63.5805   90.9870   16.3788 C.3     1  UNL1        0.0336
     10 C          64.1090   89.8219   14.0319 C.2     1  UNL1        0.0523
     11 C          64.4420   91.0463   13.2318 C.3     1  UNL1        0.0514
     12 N          64.1135   88.4099   13.5259 N.2     1  UNL1       -0.2589
     13 C          63.7203   87.5100   14.6597 C.3     1  UNL1        0.2471
     14 C          62.6540   84.7352   12.6800 C.3     1  UNL1        0.2258
     15 C          61.1385   86.9938   11.4144 C.3     1  UNL1        0.0308
     16 C          61.9554   86.0683   10.5623 C.ar    1  UNL1       -0.0223
     17 C          62.0145   86.2722    9.0773 C.ar    1  UNL1       -0.0045
     18 C          62.8314   85.3467    8.2252 C.ar    1  UNL1       -0.0007
     19 C          63.5892   84.2174    8.8580 C.ar    1  UNL1       -0.0045
     20 C          63.5301   84.0135   10.3429 C.ar    1  UNL1       -0.0223
     21 C          64.2879   82.8842   10.9757 C.3     1  UNL1        0.0308
     22 C          62.7131   84.9390   11.1951 C.ar    1  UNL1        0.0162
@<TRIPOS>BOND
     1    15    16    1
     2    16    17   ar
     3    17    18   ar
     4    18    19   ar
     5    19    20   ar
     6    20    21    1
     7    20    22   ar
     8    22    14    1
     9    14     1    1
    10     1     3    1
    11     3     4    2
    12     4     5    1
    13     5     6    2
    14     6     7    1
    15     7     8    2
    16     8     9    1
    17     8    10    1
    18    10    11    1
    19    10    12    2
    20    12    13    1
    21    22    16   ar
    22    13     3    1
    23    13     7    1
    24     1     2    1
@<TRIPOS>MOLECULE
*****
 22 24 0 0 0
SMALL
GASTEIGER

@<TRIPOS>ATOM
      1 N          62.8063   89.5003   11.1791 N.pl3   1  UNL1       -0.2166
      2 H          62.8241   90.0633   10.3716 H       1  UNL1        0.2923
      3 C          63.4796   89.9687   12.4350 C.2     1  UNL1        0.3276
      4 N          63.2534   89.2373   13.7249 N.2     1  UNL1       -0.0164
      5 C          63.9267   89.7058   14.9807 C.2     1  UNL1        0.3383
      6 N          64.8263   90.9056   14.9466 N.2     1  UNL1       -0.2017
      7 C          65.0526   91.6369   13.6568 C.2     1  UNL1        0.0940
      8 C          65.8789   92.8421   13.3178 C.2     1  UNL1        0.0075
      9 C          66.7201   93.6321   14.2760 C.3     1  UNL1        0.0336
     10 C          65.7162   93.1185   11.8525 C.2     1  UNL1        0.0523
     11 C          66.3663   94.2335   11.0881 C.3     1  UNL1        0.0514
     12 N          64.7894   92.0842   11.2858 N.2     1  UNL1       -0.2589
     13 C          64.3793   91.1685   12.4009 C.3     1  UNL1        0.2471
     14 C          62.1058   88.1741   11.1535 C.3     1  UNL1        0.2258
     15 C          62.5230   85.4962    9.8672 C.3     1  UNL1        0.0308
     16 C          61.4973   86.4415    9.3157 C.ar    1  UNL1       -0.0223
     17 C          60.6801   86.0478    8.1210 C.ar    1  UNL1       -0.0045
     18 C          59.6544   86.9932    7.5694 C.ar    1  UNL1       -0.0007
     19 C          59.4458   88.3321    8.2125 C.ar    1  UNL1       -0.0045
     20 C          60.2629   88.7258    9.4072 C.ar    1  UNL1       -0.0223
     21 C          60.0543   90.0648   10.0503 C.3     1  UNL1        0.0308
     22 C          61.2887   87.7805    9.9588 C.ar    1  UNL1        0.0162
@<TRIPOS>BOND
     1    15    16    1
     2    16    17   ar
     3    17    18   ar
     4    18    19   ar
     5    19    20   ar
     6    20    21    1
     7    20    22   ar
     8    22    14    1
     9    14     1    1
    10     1     3    1
    11     3     4    2
    12     4     5    1
    13     5     6    2
    14     6     7    1
    15     7     8    2
    16     8     9    1
    17     8    10    1
    18    10    11    1
    19    10    12    2
    20    12    13    1
    21    22    16   ar
    22    13     3    1
    23    13     7    1
    24     1     2    1
@<TRIPOS>MOLECULE
*****
 22 24 0 0 0
SMALL
GASTEIGER

@<TRIPOS>ATOM
      1 N          63.4391   86.1916   12.4789 N.pl3   1  UNL1       -0.2166
      2 H          64.3500   86.2935   12.1194 H       1  UNL1        0.2923
      3 C          63.1090   85.0284   13.3667 C.2     1  UNL1        0.3276
      4 N          62.8562   85.2489   14.8287 N.2     1  UNL1       -0.0164
      5 C          62.5261   84.0857   15.7164 C.2     1  UNL1        0.3383
      6 N          62.4488   82.7022   15.1421 N.2     1  UNL1       -0.2017
      7 C          62.7015   82.4817   13.6802 C.2     1  UNL1        0.0940
      8 C          62.6959   81.2416   12.8364 C.2     1  UNL1        0.0075
      9 C          62.4132   79.8492   13.3174 C.3     1  UNL1        0.0336
     10 C          63.0225   81.6383   11.4271 C.2     1  UNL1        0.0523
     11 C          63.1237   80.7122   10.2514 C.3     1  UNL1        0.0514
     12 N          63.2300   83.1236   11.3999 N.2     1  UNL1       -0.2589
     13 C          63.0316   83.6449   12.7924 C.3     1  UNL1        0.2471
     14 C          62.3815   87.1994   12.1387 C.3     1  UNL1        0.2258
     15 C          63.9932   88.8573   14.0502 C.3     1  UNL1        0.0308
     16 C          63.5768   89.4297   12.7277 C.ar    1  UNL1       -0.0223
     17 C          63.9663   90.8310   12.3609 C.ar    1  UNL1       -0.0045
     18 C          63.5499   91.4034   11.0384 C.ar    1  UNL1       -0.0007
     19 C          62.7441   90.5744   10.0826 C.ar    1  UNL1       -0.0045
     20 C          62.3546   89.1731   10.4494 C.ar    1  UNL1       -0.0223
     21 C          61.5487   88.3441    9.4937 C.3     1  UNL1        0.0308
     22 C          62.7710   88.6007   11.7720 C.ar    1  UNL1        0.0162
@<TRIPOS>BOND
     1    15    16    1
     2    16    17   ar
     3    17    18   ar
     4    18    19   ar
     5    19    20   ar
     6    20    21    1
     7    20    22   ar
     8    22    14    1
     9    14     1    1
    10     1     3    1
    11     3     4    2
    12     4     5    1
    13     5     6    2
    14     6     7    1
    15     7     8    2
    16     8     9    1
    17     8    10    1
    18    10    11    1
    19    10    12    2
    20    12    13    1
    21    22    16   ar
    22    13     3    1
    23    13     7    1
    24     1     2    1
@<TRIPOS>MOLECULE
*****
 22 24 0 0 0
SMALL
GASTEIGER

@<TRIPOS>ATOM
      1 N          62.2850   85.7295   12.5965 N.pl3   1  UNL1       -0.2166
      2 H          61.5300   85.4704   13.1728 H       1  UNL1        0.2923
      3 C          62.2713   87.0542   11.8928 C.2     1  UNL1        0.3276
      4 N          63.1079   88.1867   12.4100 N.2     1  UNL1       -0.0164
      5 C          63.0942   89.5114   11.7064 C.2     1  UNL1        0.3383
      6 N          62.2440   89.7035   10.4856 N.2     1  UNL1       -0.2017
      7 C          61.4074   88.5709    9.9685 C.2     1  UNL1        0.0940
      8 C          60.4769   88.4638    8.7969 C.2     1  UNL1        0.0075
      9 C          60.1630   89.5559    7.8177 C.3     1  UNL1        0.0336
     10 C          59.9155   87.0730    8.7764 C.2     1  UNL1        0.0523
     11 C          58.9416   86.5300    7.7730 C.3     1  UNL1        0.0514
     12 N          60.4990   86.3205    9.9353 N.2     1  UNL1       -0.2589
     13 C          61.4211   87.2463   10.6721 C.3     1  UNL1        0.2471
     14 C          63.4489   84.7996   12.4220 C.3     1  UNL1        0.2258
     15 C          62.5440   83.3006   14.8580 C.3     1  UNL1        0.0308
     16 C          62.7691   82.5692   13.5679 C.ar    1  UNL1       -0.0223
     17 C          62.5417   81.0882   13.4958 C.ar    1  UNL1       -0.0045
     18 C          62.7668   80.3568   12.2058 C.ar    1  UNL1       -0.0007
     19 C          63.2192   81.1063   10.9877 C.ar    1  UNL1       -0.0045
     20 C          63.4466   82.5872   11.0598 C.ar    1  UNL1       -0.0223
     21 C          63.8991   83.3367    9.8418 C.3     1  UNL1        0.0308
     22 C          63.2215   83.3187   12.3499 C.ar    1  UNL1        0.0162
@<TRIPOS>BOND
     1    15    16    1
     2    16    17   ar
     3    17    18   ar
     4    18    19   ar
     5    19    20   ar
     6    20    21    1
     7    20    22   ar
     8    22    14    1
     9    14     1    1
    10     1     3    1
    11     3     4    2
    12     4     5    1
    13     5     6    2
    14     6     7    1
    15     7     8    2
    16     8     9    1
    17     8    10    1
    18    10    11    1
    19    10    12    2
    20    12    13    1
    21    22    16   ar
    22    13     3    1
    23    13     7    1
    24     1     2    1
