@<TRIPOS>MOLECULE
*****
 31 33 0 0 0
SMALL
GASTEIGER

@<TRIPOS>ATOM
      1 N          64.1633   87.7597   14.1862 N.am    1  UNL1       -0.2027
      2 C          63.8382   89.0250   13.4490 C.2     1  UNL1        0.2645
      3 O          62.8361   89.0065   12.3331 O.2     1  UNL1       -0.2684
      4 H          64.8211   87.7718   14.9186 H       1  UNL1        0.1776
      5 C          64.5153   90.3088   13.8279 C.ar    1  UNL1        0.0563
      6 C          64.7276   90.6465   15.2738 C.ar    1  UNL1        0.0046
      7 C          65.4046   91.9303   15.6526 C.ar    1  UNL1        0.0015
      8 C          65.8694   92.8763   14.5854 C.ar    1  UNL1        0.0199
      9 C          65.6572   92.5386   13.1394 C.ar    1  UNL1        0.1223
     10 C          64.9801   91.2548   12.7606 C.ar    1  UNL1        0.0245
     11 S          66.1220   93.4847   12.0722 S.O2    1  UNL1        0.0634
     12 O          66.0152   92.3884   11.0539 O.2     1  UNL1       -0.1528
     13 O          66.2288   94.5809   13.0905 O.2     1  UNL1       -0.1528
     14 N          66.5868   94.4307   11.0050 N.3     1  UNL1       -0.1504
     15 C          66.4121   95.9095   11.1857 C.3     1  UNL1        0.1279
     16 C          66.8769   96.8555   10.1184 C.3     1  UNL1        0.1613
     17 O          67.5164   96.3228    8.8706 O.3     1  UNL1       -0.3507
     18 C          67.6911   94.8441    8.6899 C.3     1  UNL1        0.1613
     19 C          67.2263   93.8980    9.7571 C.3     1  UNL1        0.1279
     20 C          65.5153   85.1358   14.7223 C.3     1  UNL1        0.0538
     21 C          64.1622   85.1640   14.0754 C.2     1  UNL1        0.0795
     22 N          63.4862   86.4759   13.8073 N.2     1  UNL1       -0.1832
     23 C          63.4851   83.8802   13.6966 C.ar    1  UNL1        0.0496
     24 C          63.6992   83.2934   12.3328 C.ar    1  UNL1        0.0156
     25 C          63.0222   82.0097   11.9540 C.ar    1  UNL1        0.0579
     26 CL         63.2363   81.4229   10.5902 Cl      1  UNL1       -0.0822
     27 C          62.1310   81.3127   12.9389 C.ar    1  UNL1        0.0145
     28 C          61.9168   81.8995   14.3026 C.ar    1  UNL1        0.0375
     29 C          62.5939   83.1833   14.6815 C.ar    1  UNL1        0.1348
     30 O          62.3798   83.7701   16.0452 O.3     1  UNL1       -0.5055
     31 H          61.8231   83.3347   16.6604 H       1  UNL1        0.2922
@<TRIPOS>BOND
     1    20    21    1
     2    21    22    2
     3    22     1    1
     4     1     2   am
     5     2     3    2
     6     2     5    1
     7     5     6   ar
     8     6     7   ar
     9     7     8   ar
    10     8     9   ar
    11     9    11    1
    12    11    12    2
    13    11    13    2
    14    11    14    1
    15    14    15    1
    16    15    16    1
    17    16    17    1
    18    17    18    1
    19    18    19    1
    20     9    10   ar
    21    21    23    1
    22    23    24   ar
    23    24    25   ar
    24    25    26    1
    25    25    27   ar
    26    27    28   ar
    27    28    29   ar
    28    29    30    1
    29    10     5   ar
    30    29    23   ar
    31    19    14    1
    32     1     4    1
    33    30    31    1
@<TRIPOS>MOLECULE
*****
 31 33 0 0 0
SMALL
GASTEIGER

@<TRIPOS>ATOM
      1 N          64.1425   86.7136   14.0300 N.am    1  UNL1       -0.2027
      2 C          63.8087   87.4425   15.2978 C.2     1  UNL1        0.2645
      3 O          63.2950   86.6844   16.4858 O.2     1  UNL1       -0.2684
      4 H          64.4797   87.2112   13.2503 H       1  UNL1        0.1776
      5 C          63.9887   88.9296   15.3776 C.ar    1  UNL1        0.0563
      6 C          63.4460   89.6888   16.5519 C.ar    1  UNL1        0.0046
      7 C          63.6260   91.1758   16.6317 C.ar    1  UNL1        0.0015
      8 C          64.3486   91.9036   15.5371 C.ar    1  UNL1        0.0199
      9 C          64.8913   91.1444   14.3628 C.ar    1  UNL1        0.1223
     10 C          64.7113   89.6574   14.2830 C.ar    1  UNL1        0.0245
     11 S          65.6139   91.8722   13.2682 S.O2    1  UNL1        0.0634
     12 O          64.3080   92.1280   12.5761 O.2     1  UNL1       -0.1528
     13 O          66.9199   91.6164   13.9603 O.2     1  UNL1       -0.1528
     14 N          66.3366   92.6000   12.1736 N.3     1  UNL1       -0.1504
     15 C          65.9997   94.0308   11.8748 C.3     1  UNL1        0.1279
     16 C          66.7224   94.7586   10.7802 C.3     1  UNL1        0.1613
     17 O          67.7818   94.0556    9.9845 O.3     1  UNL1       -0.3507
     18 C          68.1187   92.6248   10.2833 C.3     1  UNL1        0.1613
     19 C          67.3960   91.8970   11.3779 C.3     1  UNL1        0.1279
     20 C          62.3701   85.5282   11.9197 C.3     1  UNL1        0.0538
     21 C          63.0764   84.6339   12.8951 C.2     1  UNL1        0.0795
     22 N          63.9625   85.2265   13.9503 N.2     1  UNL1       -0.1832
     23 C          62.8964   83.1468   12.8154 C.ar    1  UNL1        0.0496
     24 C          63.0552   82.4416   11.5010 C.ar    1  UNL1        0.0156
     25 C          62.8753   80.9546   11.4213 C.ar    1  UNL1        0.0579
     26 CL         63.0341   80.2493   10.1070 Cl      1  UNL1       -0.0822
     27 C          62.5366   80.1728   12.6558 C.ar    1  UNL1        0.0145
     28 C          62.3779   80.8780   13.9701 C.ar    1  UNL1        0.0375
     29 C          62.5578   82.3651   14.0499 C.ar    1  UNL1        0.1348
     30 O          62.3990   83.0703   15.3642 O.3     1  UNL1       -0.5055
     31 H          62.1874   82.5819   16.1354 H       1  UNL1        0.2922
@<TRIPOS>BOND
     1    20    21    1
     2    21    22    2
     3    22     1    1
     4     1     2   am
     5     2     3    2
     6     2     5    1
     7     5     6   ar
     8     6     7   ar
     9     7     8   ar
    10     8     9   ar
    11     9    11    1
    12    11    12    2
    13    11    13    2
    14    11    14    1
    15    14    15    1
    16    15    16    1
    17    16    17    1
    18    17    18    1
    19    18    19    1
    20     9    10   ar
    21    21    23    1
    22    23    24   ar
    23    24    25   ar
    24    25    26    1
    25    25    27   ar
    26    27    28   ar
    27    28    29   ar
    28    29    30    1
    29    10     5   ar
    30    29    23   ar
    31    19    14    1
    32     1     4    1
    33    30    31    1
@<TRIPOS>MOLECULE
*****
 31 33 0 0 0
SMALL
GASTEIGER

@<TRIPOS>ATOM
      1 N          62.7752   86.0635   12.4513 N.am    1  UNL1       -0.2027
      2 C          62.0127   86.7926   11.3851 C.2     1  UNL1        0.2645
      3 O          60.9786   86.0690   10.5745 O.2     1  UNL1       -0.2684
      4 H          63.4539   86.5385   12.9833 H       1  UNL1        0.1776
      5 C          62.2843   88.2456   11.1294 C.ar    1  UNL1        0.0563
      6 C          61.6664   88.9268    9.9444 C.ar    1  UNL1        0.0046
      7 C          61.9380   90.3797    9.6888 C.ar    1  UNL1        0.0015
      8 C          62.8274   91.1513   10.6181 C.ar    1  UNL1        0.0199
      9 C          63.4452   90.4701   11.8031 C.ar    1  UNL1        0.1223
     10 C          63.1736   89.0172   12.0587 C.ar    1  UNL1        0.0245
     11 S          64.3346   91.2417   12.7324 S.O2    1  UNL1        0.0634
     12 O          64.8619   92.0319   11.5716 O.2     1  UNL1       -0.1528
     13 O          63.8073   90.4514   13.8932 O.2     1  UNL1       -0.1528
     14 N          65.2240   92.0133   13.6617 N.3     1  UNL1       -0.1504
     15 C          66.0416   93.1574   13.1398 C.3     1  UNL1        0.1279
     16 C          66.9310   93.9290   14.0691 C.3     1  UNL1        0.1613
     17 O          67.0027   93.5565   15.5203 O.3     1  UNL1       -0.3507
     18 C          66.1851   92.4124   16.0422 C.3     1  UNL1        0.1613
     19 C          65.2958   91.6407   15.1129 C.3     1  UNL1        0.1279
     20 C          64.2120   83.9659   10.8588 C.3     1  UNL1        0.0538
     21 C          63.2220   83.5618   11.9108 C.2     1  UNL1        0.0795
     22 N          62.5036   84.6105   12.7070 N.2     1  UNL1       -0.1832
     23 C          62.9505   82.1090   12.1665 C.ar    1  UNL1        0.0496
     24 C          63.0124   81.1242   11.0367 C.ar    1  UNL1        0.0156
     25 C          62.7408   79.6713   11.2924 C.ar    1  UNL1        0.0579
     26 CL         62.8027   78.6866   10.1626 Cl      1  UNL1       -0.0822
     27 C          62.4073   79.2032   12.6779 C.ar    1  UNL1        0.0145
     28 C          62.3454   80.1879   13.8077 C.ar    1  UNL1        0.0375
     29 C          62.6170   81.6408   13.5520 C.ar    1  UNL1        0.1348
     30 O          62.5550   82.6255   14.6818 O.3     1  UNL1       -0.5055
     31 H          62.3467   82.3331   15.5473 H       1  UNL1        0.2922
@<TRIPOS>BOND
     1    20    21    1
     2    21    22    2
     3    22     1    1
     4     1     2   am
     5     2     3    2
     6     2     5    1
     7     5     6   ar
     8     6     7   ar
     9     7     8   ar
    10     8     9   ar
    11     9    11    1
    12    11    12    2
    13    11    13    2
    14    11    14    1
    15    14    15    1
    16    15    16    1
    17    16    17    1
    18    17    18    1
    19    18    19    1
    20     9    10   ar
    21    21    23    1
    22    23    24   ar
    23    24    25   ar
    24    25    26    1
    25    25    27   ar
    26    27    28   ar
    27    28    29   ar
    28    29    30    1
    29    10     5   ar
    30    29    23   ar
    31    19    14    1
    32     1     4    1
    33    30    31    1
@<TRIPOS>MOLECULE
*****
 31 33 0 0 0
SMALL
GASTEIGER

@<TRIPOS>ATOM
      1 N          62.7976   86.3439   12.2793 N.am    1  UNL1       -0.2027
      2 C          62.1740   87.2403   11.2509 C.2     1  UNL1        0.2645
      3 O          61.1738   86.6859   10.2803 O.2     1  UNL1       -0.2684
      4 H          63.4541   86.7077   12.9164 H       1  UNL1        0.1776
      5 C          62.5506   88.6911   11.1933 C.ar    1  UNL1        0.0563
      6 C          61.9551   89.5793   10.1414 C.ar    1  UNL1        0.0046
      7 C          62.3317   91.0301   10.0838 C.ar    1  UNL1        0.0015
      8 C          63.3038   91.5927   11.0780 C.ar    1  UNL1        0.0199
      9 C          63.8994   90.7045   12.1298 C.ar    1  UNL1        0.1223
     10 C          63.5228   89.2537   12.1875 C.ar    1  UNL1        0.0245
     11 S          64.8715   91.2671   13.1240 S.O2    1  UNL1        0.0634
     12 O          65.2242   92.3610   12.1602 O.2     1  UNL1       -0.1528
     13 O          64.5189   90.1731   14.0878 O.2     1  UNL1       -0.1528
     14 N          65.8437   91.8297   14.1182 N.3     1  UNL1       -0.1504
     15 C          65.4023   92.1066   15.5247 C.3     1  UNL1        0.1279
     16 C          66.3744   92.6692   16.5189 C.3     1  UNL1        0.1613
     17 O          67.7880   92.9548   16.1066 O.3     1  UNL1       -0.3507
     18 C          68.2295   92.6779   14.7000 C.3     1  UNL1        0.1613
     19 C          67.2573   92.1153   13.7058 C.3     1  UNL1        0.1279
     20 C          64.0099   84.5612   14.3656 C.3     1  UNL1        0.0538
     21 C          63.0271   84.0017   13.3801 C.2     1  UNL1        0.0795
     22 N          62.4210   84.8930   12.3370 N.2     1  UNL1       -0.1832
     23 C          62.6505   82.5509   13.4377 C.ar    1  UNL1        0.0496
     24 C          61.2904   82.1479   13.9253 C.ar    1  UNL1        0.0156
     25 C          60.9138   80.6972   13.9830 C.ar    1  UNL1        0.0579
     26 CL         59.5537   80.2942   14.4705 Cl      1  UNL1       -0.0822
     27 C          61.8972   79.6493   13.5530 C.ar    1  UNL1        0.0145
     28 C          63.2573   80.0523   13.0655 C.ar    1  UNL1        0.0375
     29 C          63.6340   81.5031   13.0078 C.ar    1  UNL1        0.1348
     30 O          64.9941   81.9061   12.5203 O.3     1  UNL1       -0.5055
     31 H          65.6084   81.2515   12.2517 H       1  UNL1        0.2922
@<TRIPOS>BOND
     1    20    21    1
     2    21    22    2
     3    22     1    1
     4     1     2   am
     5     2     3    2
     6     2     5    1
     7     5     6   ar
     8     6     7   ar
     9     7     8   ar
    10     8     9   ar
    11     9    11    1
    12    11    12    2
    13    11    13    2
    14    11    14    1
    15    14    15    1
    16    15    16    1
    17    16    17    1
    18    17    18    1
    19    18    19    1
    20     9    10   ar
    21    21    23    1
    22    23    24   ar
    23    24    25   ar
    24    25    26    1
    25    25    27   ar
    26    27    28   ar
    27    28    29   ar
    28    29    30    1
    29    10     5   ar
    30    29    23   ar
    31    19    14    1
    32     1     4    1
    33    30    31    1
@<TRIPOS>MOLECULE
*****
 31 33 0 0 0
SMALL
GASTEIGER

@<TRIPOS>ATOM
      1 N          60.4456   89.4317    8.3977 N.am    1  UNL1       -0.2027
      2 C          59.6464   88.9927    7.2067 C.2     1  UNL1        0.2645
      3 O          59.2944   87.5452    7.0320 O.2     1  UNL1       -0.2684
      4 H          60.6767   90.3818    8.5124 H       1  UNL1        0.1776
      5 C          59.1992   90.0014    6.1905 C.ar    1  UNL1        0.0563
      6 C          57.7454   90.3505    6.0697 C.ar    1  UNL1        0.0046
      7 C          57.2983   91.3591    5.0534 C.ar    1  UNL1        0.0015
      8 C          58.3049   92.0185    4.1580 C.ar    1  UNL1        0.0199
      9 C          59.7587   91.6694    4.2788 C.ar    1  UNL1        0.1223
     10 C          60.2058   90.6608    5.2950 C.ar    1  UNL1        0.0245
     11 S          60.7653   92.3288    3.3833 S.O2    1  UNL1        0.0634
     12 O          61.8604   91.5306    4.0265 O.2     1  UNL1       -0.1528
     13 O          59.6702   93.1271    2.7401 O.2     1  UNL1       -0.1528
     14 N          61.7719   92.9883    2.4879 N.3     1  UNL1       -0.1504
     15 C          61.3796   94.1833    1.6706 C.3     1  UNL1        0.1279
     16 C          62.3863   94.8428    0.7752 C.3     1  UNL1        0.1613
     17 O          63.7852   94.3072    0.6970 O.3     1  UNL1       -0.3507
     18 C          64.1774   93.1122    1.5142 C.3     1  UNL1        0.1613
     19 C          63.1708   92.4527    2.4096 C.3     1  UNL1        0.1279
     20 C          62.7774   90.0364   10.1858 C.3     1  UNL1        0.0538
     21 C          62.0587   88.7254   10.3080 C.2     1  UNL1        0.0795
     22 N          60.8928   88.4231    9.4140 N.2     1  UNL1       -0.1832
     23 C          62.5059   87.7168   11.3242 C.ar    1  UNL1        0.0496
     24 C          63.2946   88.1575   12.5216 C.ar    1  UNL1        0.0156
     25 C          63.7418   87.1489   13.5379 C.ar    1  UNL1        0.0579
     26 CL         64.5305   87.5896   14.7352 Cl      1  UNL1       -0.0822
     27 C          63.4002   85.6996   13.3567 C.ar    1  UNL1        0.0145
     28 C          62.6115   85.2589   12.1594 C.ar    1  UNL1        0.0375
     29 C          62.1643   86.2675   11.1431 C.ar    1  UNL1        0.1348
     30 O          61.3755   85.8268    9.9458 O.3     1  UNL1       -0.5055
     31 H          61.1622   84.9214    9.8327 H       1  UNL1        0.2922
@<TRIPOS>BOND
     1    20    21    1
     2    21    22    2
     3    22     1    1
     4     1     2   am
     5     2     3    2
     6     2     5    1
     7     5     6   ar
     8     6     7   ar
     9     7     8   ar
    10     8     9   ar
    11     9    11    1
    12    11    12    2
    13    11    13    2
    14    11    14    1
    15    14    15    1
    16    15    16    1
    17    16    17    1
    18    17    18    1
    19    18    19    1
    20     9    10   ar
    21    21    23    1
    22    23    24   ar
    23    24    25   ar
    24    25    26    1
    25    25    27   ar
    26    27    28   ar
    27    28    29   ar
    28    29    30    1
    29    10     5   ar
    30    29    23   ar
    31    19    14    1
    32     1     4    1
    33    30    31    1
@<TRIPOS>MOLECULE
*****
 31 33 0 0 0
SMALL
GASTEIGER

@<TRIPOS>ATOM
      1 N          60.6589   90.8067    5.4989 N.am    1  UNL1       -0.2027
      2 C          59.4828   90.1423    6.1511 C.2     1  UNL1        0.2645
      3 O          58.0930   90.4375    5.6704 O.2     1  UNL1       -0.2684
      4 H          61.5711   90.6129    5.8144 H       1  UNL1        0.1776
      5 C          59.6966   89.1828    7.2842 C.ar    1  UNL1        0.0563
      6 C          58.9846   87.8627    7.2935 C.ar    1  UNL1        0.0046
      7 C          59.1984   86.9032    8.4264 C.ar    1  UNL1        0.0015
      8 C          60.1242   87.2639    9.5501 C.ar    1  UNL1        0.0199
      9 C          60.8363   88.5841    9.5409 C.ar    1  UNL1        0.1223
     10 C          60.6225   89.5435    8.4079 C.ar    1  UNL1        0.0245
     11 S          61.7621   88.9448   10.6645 S.O2    1  UNL1        0.0634
     12 O          62.1664   90.1896    9.9318 O.2     1  UNL1       -0.1528
     13 O          61.3578   87.6999   11.3973 O.2     1  UNL1       -0.1528
     14 N          62.6880   89.3055   11.7882 N.3     1  UNL1       -0.1504
     15 C          63.0688   90.7384   12.0157 C.3     1  UNL1        0.1279
     16 C          63.9946   91.0991   13.1394 C.3     1  UNL1        0.1613
     17 O          64.5396   90.0269   14.0356 O.3     1  UNL1       -0.3507
     18 C          64.1588   88.5940   13.8082 C.3     1  UNL1        0.1613
     19 C          63.2330   88.2333   12.6845 C.3     1  UNL1        0.1279
     20 C          62.8231   91.2328    3.4655 C.3     1  UNL1        0.0538
     21 C          61.5272   91.9793    3.3492 C.2     1  UNL1        0.0795
     22 N          60.4451   91.7662    4.3659 N.2     1  UNL1       -0.1832
     23 C          61.3134   92.9387    2.2162 C.ar    1  UNL1        0.0496
     24 C          62.4875   93.6231    1.5812 C.ar    1  UNL1        0.0156
     25 C          62.2737   94.5826    0.4483 C.ar    1  UNL1        0.0579
     26 CL         63.4478   95.2669   -0.1867 Cl      1  UNL1       -0.0822
     27 C          60.8858   94.8578   -0.0497 C.ar    1  UNL1        0.0145
     28 C          59.7117   94.1735    0.5852 C.ar    1  UNL1        0.0375
     29 C          59.9255   93.2139    1.7182 C.ar    1  UNL1        0.1348
     30 O          58.7514   92.5296    2.3532 O.3     1  UNL1       -0.5055
     31 H          57.8845   92.7015    2.0421 H       1  UNL1        0.2922
@<TRIPOS>BOND
     1    20    21    1
     2    21    22    2
     3    22     1    1
     4     1     2   am
     5     2     3    2
     6     2     5    1
     7     5     6   ar
     8     6     7   ar
     9     7     8   ar
    10     8     9   ar
    11     9    11    1
    12    11    12    2
    13    11    13    2
    14    11    14    1
    15    14    15    1
    16    15    16    1
    17    16    17    1
    18    17    18    1
    19    18    19    1
    20     9    10   ar
    21    21    23    1
    22    23    24   ar
    23    24    25   ar
    24    25    26    1
    25    25    27   ar
    26    27    28   ar
    27    28    29   ar
    28    29    30    1
    29    10     5   ar
    30    29    23   ar
    31    19    14    1
    32     1     4    1
    33    30    31    1
