@<TRIPOS>MOLECULE
*****
 35 38 0 0 0
SMALL
GASTEIGER

@<TRIPOS>ATOM
      1 N          64.4457   91.1013   13.0014 N.3     1  UNL1       -0.2679
      2 C          64.1757   91.4939   11.5790 C.3     1  UNL1        0.0897
      3 C          62.8605   91.1528   10.9436 C.3     1  UNL1        0.0897
      4 N          61.8152   90.4191   11.7306 N.3     1  UNL1       -0.2680
      5 C          62.0852   90.0265   13.1529 C.3     1  UNL1        0.0897
      6 C          63.4005   90.3677   13.7883 C.3     1  UNL1        0.0897
      7 C          65.7609   91.4424   13.6368 C.3     1  UNL1        0.1080
      8 C          66.2026   92.8732   13.7252 C.3     1  UNL1        0.1661
      9 O          66.4259   93.5077   15.0659 O.3     1  UNL1       -0.3771
     10 H          66.2417   92.8605   15.7646 H       1  UNL1        0.2109
     11 C          67.2622   93.8182   10.0193 C.ar    1  UNL1        0.1510
     12 C          67.0438   93.0221   11.2716 C.ar    1  UNL1        0.0548
     13 C          66.4210   93.6695   12.4729 C.ar    1  UNL1        0.0901
     14 N          66.0166   95.1130   12.4218 N.ar    1  UNL1       -0.2448
     15 C          66.2350   95.9092   11.1694 C.ar    1  UNL1        0.1118
     16 C          66.8578   95.2618    9.9682 C.ar    1  UNL1        0.1213
     17 C          68.6892   91.9145    8.9754 C.3     1  UNL1        0.2525
     18 O          67.8850   93.1709    8.8179 O.3     1  UNL1       -0.4707
     19 C          67.0761   96.0580    8.7158 C.1     1  UNL1        0.1051
     20 N          67.2946   96.8542    7.4635 N.1     1  UNL1       -0.1907
     21 C          60.5000   90.0779   11.0952 C.3     1  UNL1        0.1064
     22 C          59.9959   88.6655   11.1264 C.3     1  UNL1        0.1483
     23 O          59.1430   88.1987   12.2685 O.3     1  UNL1       -0.3786
     24 H          58.9045   87.2680   12.1346 H       1  UNL1        0.2108
     25 C          60.3448   87.7199   10.0153 C.ar    1  UNL1        0.0015
     26 C          59.4093   87.5477    8.8556 C.ar    1  UNL1       -0.0020
     27 C          59.7581   86.6022    7.7446 C.ar    1  UNL1        0.0060
     28 C          61.0425   85.8289    7.7935 C.ar    1  UNL1        0.0748
     29 C          61.9780   86.0010    8.9533 C.ar    1  UNL1        0.0233
     30 C          61.6292   86.9466   10.0642 C.ar    1  UNL1       -0.0238
     31 C          62.5647   87.1188   11.2241 C.3     1  UNL1        0.0306
     32 C          63.1639   85.1104    8.7285 C.3     1  UNL1        0.2352
     33 O          62.9613   84.3878    7.4298 O.3     1  UNL1       -0.4404
     34 C          61.6502   84.8318    6.8519 C.2     1  UNL1        0.3413
     35 O          61.0519   84.3613    5.5593 O.2     1  UNL1       -0.2449
@<TRIPOS>BOND
     1    17    18    1
     2    18    11    1
     3    11    12   ar
     4    12    13   ar
     5    13     8    1
     6     8     9    1
     7     8     7    1
     8     7     1    1
     9     1     2    1
    10     2     3    1
    11     3     4    1
    12     4    21    1
    13    21    22    1
    14    22    23    1
    15    22    25    1
    16    25    26   ar
    17    26    27   ar
    18    27    28   ar
    19    28    29   ar
    20    29    30   ar
    21    30    31    1
    22    29    32    1
    23    32    33    1
    24    33    34    1
    25    34    35    2
    26     4     5    1
    27     5     6    1
    28    13    14   ar
    29    14    15   ar
    30    15    16   ar
    31    16    19    1
    32    19    20    3
    33    16    11   ar
    34     6     1    1
    35    30    25   ar
    36    34    28    1
    37     9    10    1
    38    23    24    1
@<TRIPOS>MOLECULE
*****
 35 38 0 0 0
SMALL
GASTEIGER

@<TRIPOS>ATOM
      1 N          63.8362   89.8178   15.7421 N.3     1  UNL1       -0.2679
      2 C          63.1588   89.1080   16.8767 C.3     1  UNL1        0.0897
      3 C          63.0876   87.6098   16.8884 C.3     1  UNL1        0.0897
      4 N          63.6940   86.8213   15.7655 N.3     1  UNL1       -0.2680
      5 C          64.3714   87.5311   14.6309 C.3     1  UNL1        0.0897
      6 C          64.4425   89.0294   14.6193 C.3     1  UNL1        0.0897
      7 C          63.9073   91.3161   15.7303 C.3     1  UNL1        0.1080
      8 C          65.2297   92.0029   15.5578 C.3     1  UNL1        0.1661
      9 O          65.9068   92.6335   16.7384 O.3     1  UNL1       -0.3771
     10 H          65.3602   92.5079   17.5298 H       1  UNL1        0.2109
     11 C          65.6707   92.2258   11.6201 C.ar    1  UNL1        0.1510
     12 C          65.0257   92.1696   12.9732 C.ar    1  UNL1        0.0548
     13 C          65.8748   92.0591   14.2048 C.ar    1  UNL1        0.0901
     14 N          67.3688   92.0047   14.0834 N.ar    1  UNL1       -0.2448
     15 C          68.0139   92.0609   12.7303 C.ar    1  UNL1        0.1118
     16 C          67.1648   92.1714   11.4987 C.ar    1  UNL1        0.1213
     17 C          63.5294   91.5802   10.2981 C.3     1  UNL1        0.2525
     18 O          64.8217   92.3363   10.3884 O.3     1  UNL1       -0.4707
     19 C          67.8099   92.2276   10.1456 C.1     1  UNL1        0.1051
     20 N          68.4551   92.2836    8.7926 N.1     1  UNL1       -0.1907
     21 C          63.6229   85.3231   15.7773 C.3     1  UNL1        0.1064
     22 C          62.3928   84.6267   15.2754 C.3     1  UNL1        0.1483
     23 O          61.0386   85.0566   15.7563 O.3     1  UNL1       -0.3786
     24 H          60.3574   84.5077   15.3373 H       1  UNL1        0.2108
     25 C          62.5169   83.5003   14.2925 C.ar    1  UNL1        0.0015
     26 C          62.1925   82.0979   14.7141 C.ar    1  UNL1       -0.0020
     27 C          62.3166   80.9715   13.7314 C.ar    1  UNL1        0.0060
     28 C          62.7652   81.2476   12.3269 C.ar    1  UNL1        0.0748
     29 C          63.0896   82.6501   11.9052 C.ar    1  UNL1        0.0233
     30 C          62.9655   83.7765   12.8880 C.ar    1  UNL1       -0.0238
     31 C          63.2899   85.1790   12.4664 C.3     1  UNL1        0.0306
     32 C          63.5043   82.6167   10.4641 C.3     1  UNL1        0.2352
     33 O          63.4362   81.1935    9.9951 O.3     1  UNL1       -0.4404
     34 C          62.9794   80.3474   11.1463 C.2     1  UNL1        0.3413
     35 O          62.7730   78.8619   11.1214 O.2     1  UNL1       -0.2449
@<TRIPOS>BOND
     1    17    18    1
     2    18    11    1
     3    11    12   ar
     4    12    13   ar
     5    13     8    1
     6     8     9    1
     7     8     7    1
     8     7     1    1
     9     1     2    1
    10     2     3    1
    11     3     4    1
    12     4    21    1
    13    21    22    1
    14    22    23    1
    15    22    25    1
    16    25    26   ar
    17    26    27   ar
    18    27    28   ar
    19    28    29   ar
    20    29    30   ar
    21    30    31    1
    22    29    32    1
    23    32    33    1
    24    33    34    1
    25    34    35    2
    26     4     5    1
    27     5     6    1
    28    13    14   ar
    29    14    15   ar
    30    15    16   ar
    31    16    19    1
    32    19    20    3
    33    16    11   ar
    34     6     1    1
    35    30    25   ar
    36    34    28    1
    37     9    10    1
    38    23    24    1
@<TRIPOS>MOLECULE
*****
 35 38 0 0 0
SMALL
GASTEIGER

@<TRIPOS>ATOM
      1 N          63.3789   89.0016   16.0718 N.3     1  UNL1       -0.2679
      2 C          62.8589   87.9980   17.0578 C.3     1  UNL1        0.0897
      3 C          63.1367   86.5375   16.8587 C.3     1  UNL1        0.0897
      4 N          63.9345   86.0806   15.6734 N.3     1  UNL1       -0.2680
      5 C          64.4545   87.0843   14.6873 C.3     1  UNL1        0.0897
      6 C          64.1766   88.5447   14.8865 C.3     1  UNL1        0.0897
      7 C          63.1011   90.4621   16.2709 C.3     1  UNL1        0.1080
      8 C          64.2314   91.4482   16.2659 C.3     1  UNL1        0.1661
      9 O          64.6145   92.1563   17.5316 O.3     1  UNL1       -0.3771
     10 H          64.0361   91.8640   18.2534 H       1  UNL1        0.2109
     11 C          67.2072   92.2381   13.7619 C.ar    1  UNL1        0.1510
     12 C          66.4599   91.9602   15.0324 C.ar    1  UNL1        0.0548
     13 C          64.9787   91.7261   14.9954 C.ar    1  UNL1        0.0901
     14 N          64.2449   91.7699   13.6879 N.ar    1  UNL1       -0.2448
     15 C          64.9922   92.0478   12.4174 C.ar    1  UNL1        0.1118
     16 C          66.4734   92.2819   12.4544 C.ar    1  UNL1        0.1213
     17 C          69.3663   92.7830   15.1002 C.3     1  UNL1        0.2525
     18 O          68.6884   92.4722   13.7987 O.3     1  UNL1       -0.4707
     19 C          67.2206   92.5598   11.1837 C.1     1  UNL1        0.1051
     20 N          67.9680   92.8376    9.9132 N.1     1  UNL1       -0.1907
     21 C          64.2123   84.6201   15.4742 C.3     1  UNL1        0.1064
     22 C          63.3334   83.8057   14.5719 C.3     1  UNL1        0.1483
     23 O          62.7668   82.5028   15.0528 O.3     1  UNL1       -0.3786
     24 H          62.2254   82.1072   14.3519 H       1  UNL1        0.2108
     25 C          63.0209   84.2943   13.1884 C.ar    1  UNL1        0.0015
     26 C          62.0458   85.4169   12.9919 C.ar    1  UNL1       -0.0020
     27 C          61.7334   85.9055   11.6086 C.ar    1  UNL1        0.0060
     28 C          62.3962   85.2715   10.4217 C.ar    1  UNL1        0.0748
     29 C          63.3714   84.1488   10.6182 C.ar    1  UNL1        0.0233
     30 C          63.6838   83.6602   12.0016 C.ar    1  UNL1       -0.0238
     31 C          64.6590   82.5375   12.1981 C.3     1  UNL1        0.0306
     32 C          63.8651   83.7219    9.2677 C.3     1  UNL1        0.2352
     33 O          63.1951   84.5808    8.2365 O.3     1  UNL1       -0.4404
     34 C          62.2872   85.5385    8.9497 C.2     1  UNL1        0.3413
     35 O          61.4223   86.5802    8.3043 O.2     1  UNL1       -0.2449
@<TRIPOS>BOND
     1    17    18    1
     2    18    11    1
     3    11    12   ar
     4    12    13   ar
     5    13     8    1
     6     8     9    1
     7     8     7    1
     8     7     1    1
     9     1     2    1
    10     2     3    1
    11     3     4    1
    12     4    21    1
    13    21    22    1
    14    22    23    1
    15    22    25    1
    16    25    26   ar
    17    26    27   ar
    18    27    28   ar
    19    28    29   ar
    20    29    30   ar
    21    30    31    1
    22    29    32    1
    23    32    33    1
    24    33    34    1
    25    34    35    2
    26     4     5    1
    27     5     6    1
    28    13    14   ar
    29    14    15   ar
    30    15    16   ar
    31    16    19    1
    32    19    20    3
    33    16    11   ar
    34     6     1    1
    35    30    25   ar
    36    34    28    1
    37     9    10    1
    38    23    24    1
@<TRIPOS>MOLECULE
*****
 35 38 0 0 0
SMALL
GASTEIGER

@<TRIPOS>ATOM
      1 N          63.2615   91.0552   11.7625 N.3     1  UNL1       -0.2679
      2 C          63.4620   90.7112   10.3163 C.3     1  UNL1        0.0897
      3 C          62.4896   89.8070    9.6186 C.3     1  UNL1        0.0897
      4 N          61.3166   89.2467   10.3673 N.3     1  UNL1       -0.2680
      5 C          61.1161   89.5907   11.8135 C.3     1  UNL1        0.0897
      6 C          62.0885   90.4950   12.5110 C.3     1  UNL1        0.0897
      7 C          64.2339   91.9594   12.4601 C.3     1  UNL1        0.1080
      8 C          65.0548   91.4393   13.6028 C.3     1  UNL1        0.1661
      9 O          66.4479   91.9513   13.8195 O.3     1  UNL1       -0.3771
     10 H          66.6607   92.6081   13.1381 H       1  UNL1        0.2109
     11 C          63.9842   87.9209   15.0941 C.ar    1  UNL1        0.1510
     12 C          64.5564   88.9530   14.1683 C.ar    1  UNL1        0.0548
     13 C          64.4825   90.4072   14.5287 C.ar    1  UNL1        0.0901
     14 N          63.8364   90.8293   15.8149 N.ar    1  UNL1       -0.2448
     15 C          63.2642   89.7971   16.7407 C.ar    1  UNL1        0.1118
     16 C          63.3380   88.3429   16.3803 C.ar    1  UNL1        0.1213
     17 C          65.3570   85.7275   14.8613 C.3     1  UNL1        0.2525
     18 O          64.0580   86.4666   14.7338 O.3     1  UNL1       -0.4707
     19 C          62.7657   87.3108   17.3063 C.1     1  UNL1        0.1051
     20 N          62.1935   86.2788   18.2323 N.1     1  UNL1       -0.1907
     21 C          60.3442   88.3425    9.6696 C.3     1  UNL1        0.1064
     22 C          60.8109   87.0355    9.1007 C.3     1  UNL1        0.1483
     23 O          60.4912   86.6794    7.6790 O.3     1  UNL1       -0.3786
     24 H          60.8634   85.8078    7.4725 H       1  UNL1        0.2108
     25 C          61.5974   86.0844    9.9534 C.ar    1  UNL1        0.0015
     26 C          61.3924   86.0640   11.4391 C.ar    1  UNL1       -0.0020
     27 C          62.1788   85.1130   12.2917 C.ar    1  UNL1        0.0060
     28 C          63.1704   84.1824   11.6586 C.ar    1  UNL1        0.0748
     29 C          63.3754   84.2028   10.1728 C.ar    1  UNL1        0.0233
     30 C          62.5890   85.1538    9.3202 C.ar    1  UNL1       -0.0238
     31 C          62.7940   85.1742    7.8343 C.3     1  UNL1        0.0306
     32 C          64.4151   83.1759    9.8342 C.3     1  UNL1        0.2352
     33 O          64.8526   82.5209   11.1107 O.3     1  UNL1       -0.4404
     34 C          64.0833   83.1429   12.2383 C.2     1  UNL1        0.3413
     35 O          64.2055   82.7877   13.6905 O.2     1  UNL1       -0.2449
@<TRIPOS>BOND
     1    17    18    1
     2    18    11    1
     3    11    12   ar
     4    12    13   ar
     5    13     8    1
     6     8     9    1
     7     8     7    1
     8     7     1    1
     9     1     2    1
    10     2     3    1
    11     3     4    1
    12     4    21    1
    13    21    22    1
    14    22    23    1
    15    22    25    1
    16    25    26   ar
    17    26    27   ar
    18    27    28   ar
    19    28    29   ar
    20    29    30   ar
    21    30    31    1
    22    29    32    1
    23    32    33    1
    24    33    34    1
    25    34    35    2
    26     4     5    1
    27     5     6    1
    28    13    14   ar
    29    14    15   ar
    30    15    16   ar
    31    16    19    1
    32    19    20    3
    33    16    11   ar
    34     6     1    1
    35    30    25   ar
    36    34    28    1
    37     9    10    1
    38    23    24    1
@<TRIPOS>MOLECULE
*****
 35 38 0 0 0
SMALL
GASTEIGER

@<TRIPOS>ATOM
      1 N          63.5244   86.7827   16.2276 N.3     1  UNL1       -0.2679
      2 C          62.6274   85.6364   16.5899 C.3     1  UNL1        0.0897
      3 C          62.8392   84.2908   15.9619 C.3     1  UNL1        0.0897
      4 N          63.9481   84.0916   14.9715 N.3     1  UNL1       -0.2680
      5 C          64.8451   85.2379   14.6092 C.3     1  UNL1        0.0897
      6 C          64.6333   86.5834   15.2373 C.3     1  UNL1        0.0897
      7 C          63.3127   88.1283   16.8557 C.3     1  UNL1        0.1080
      8 C          62.6737   89.2323   16.0664 C.3     1  UNL1        0.1661
      9 O          61.1929   89.4558   16.1525 O.3     1  UNL1       -0.3771
     10 H          60.8024   88.8054   16.7570 H       1  UNL1        0.2109
     11 C          65.3263   91.9578   14.9327 C.ar    1  UNL1        0.1510
     12 C          64.4845   91.0773   15.8080 C.ar    1  UNL1        0.0548
     13 C          63.5154   90.1127   15.1911 C.ar    1  UNL1        0.0901
     14 N          63.3882   90.0287   13.6988 N.ar    1  UNL1       -0.2448
     15 C          64.2300   90.9092   12.8236 C.ar    1  UNL1        0.1118
     16 C          65.1990   91.8737   13.4405 C.ar    1  UNL1        0.1213
     17 C          67.6213   92.4343   16.0534 C.3     1  UNL1        0.2525
     18 O          66.2954   92.9223   15.5496 O.3     1  UNL1       -0.4707
     19 C          66.0408   92.7542   12.5651 C.1     1  UNL1        0.1051
     20 N          66.8826   93.6345   11.6897 N.1     1  UNL1       -0.1907
     21 C          64.1598   82.7459   14.3434 C.3     1  UNL1        0.1064
     22 C          63.4605   82.3975   13.0630 C.3     1  UNL1        0.1483
     23 O          63.1878   80.9619   12.7240 O.3     1  UNL1       -0.3786
     24 H          62.7327   80.9125   11.8689 H       1  UNL1        0.2108
     25 C          63.0337   83.4846   12.1216 C.ar    1  UNL1        0.0015
     26 C          62.1634   84.6031   12.6127 C.ar    1  UNL1       -0.0020
     27 C          61.7367   85.6902   11.6714 C.ar    1  UNL1        0.0060
     28 C          62.1803   85.6586   10.2388 C.ar    1  UNL1        0.0748
     29 C          63.0506   84.5400    9.7476 C.ar    1  UNL1        0.0233
     30 C          63.4774   83.4530   10.6890 C.ar    1  UNL1       -0.0238
     31 C          64.3478   82.3343   10.1979 C.3     1  UNL1        0.0306
     32 C          63.3289   84.7739    8.2923 C.3     1  UNL1        0.2352
     33 O          62.6305   86.0371    7.8841 O.3     1  UNL1       -0.4404
     34 C          61.9206   86.5838    9.0871 C.2     1  UNL1        0.3413
     35 O          61.0958   87.8360    9.1306 O.2     1  UNL1       -0.2449
@<TRIPOS>BOND
     1    17    18    1
     2    18    11    1
     3    11    12   ar
     4    12    13   ar
     5    13     8    1
     6     8     9    1
     7     8     7    1
     8     7     1    1
     9     1     2    1
    10     2     3    1
    11     3     4    1
    12     4    21    1
    13    21    22    1
    14    22    23    1
    15    22    25    1
    16    25    26   ar
    17    26    27   ar
    18    27    28   ar
    19    28    29   ar
    20    29    30   ar
    21    30    31    1
    22    29    32    1
    23    32    33    1
    24    33    34    1
    25    34    35    2
    26     4     5    1
    27     5     6    1
    28    13    14   ar
    29    14    15   ar
    30    15    16   ar
    31    16    19    1
    32    19    20    3
    33    16    11   ar
    34     6     1    1
    35    30    25   ar
    36    34    28    1
    37     9    10    1
    38    23    24    1
@<TRIPOS>MOLECULE
*****
 35 38 0 0 0
SMALL
GASTEIGER

@<TRIPOS>ATOM
      1 N          62.8043   84.4367   10.4131 N.3     1  UNL1       -0.2679
      2 C          63.1158   85.0151    9.0645 C.3     1  UNL1        0.0897
      3 C          62.6437   86.3947    8.7129 C.3     1  UNL1        0.0897
      4 N          61.8601   87.1961    9.7100 N.3     1  UNL1       -0.2680
      5 C          61.5486   86.6177   11.0585 C.3     1  UNL1        0.0897
      6 C          62.0207   85.2381   11.4100 C.3     1  UNL1        0.0897
      7 C          63.2763   83.0571   10.7646 C.3     1  UNL1        0.1080
      8 C          64.1022   82.8383   11.9976 C.3     1  UNL1        0.1661
      9 O          65.2661   81.8927   11.9626 O.3     1  UNL1       -0.3771
     10 H          65.3452   81.5100   11.0748 H       1  UNL1        0.2109
     11 C          64.1843   85.5295   14.9131 C.ar    1  UNL1        0.1510
     12 C          64.5223   84.8026   13.6453 C.ar    1  UNL1        0.0548
     13 C          63.7642   83.5652   13.2654 C.ar    1  UNL1        0.0901
     14 N          62.6683   83.0547   14.1533 N.ar    1  UNL1       -0.2448
     15 C          62.3304   83.7817   15.4211 C.ar    1  UNL1        0.1118
     16 C          63.0884   85.0191   15.8010 C.ar    1  UNL1        0.1213
     17 C          64.4600   88.1118   14.8362 C.3     1  UNL1        0.2525
     18 O          64.9423   86.7669   15.2931 O.3     1  UNL1       -0.4707
     19 C          62.7504   85.7460   17.0689 C.1     1  UNL1        0.1051
     20 N          62.4125   86.4727   18.3368 N.1     1  UNL1       -0.1907
     21 C          61.3881   88.5758    9.3584 C.3     1  UNL1        0.1064
     22 C          61.2039   89.6027   10.4360 C.3     1  UNL1        0.1483
     23 O          59.8490   89.8193   11.0421 O.3     1  UNL1       -0.3786
     24 H          59.9042   90.5127   11.7181 H       1  UNL1        0.2108
     25 C          62.3747   90.4132   10.9077 C.ar    1  UNL1        0.0015
     26 C          63.1804   91.2096    9.9246 C.ar    1  UNL1       -0.0020
     27 C          64.3512   92.0200   10.3962 C.ar    1  UNL1        0.0060
     28 C          64.7162   92.0341   11.8511 C.ar    1  UNL1        0.0748
     29 C          63.9105   91.2378   12.8342 C.ar    1  UNL1        0.0233
     30 C          62.7398   90.4273   12.3626 C.ar    1  UNL1       -0.0238
     31 C          61.9340   89.6309   13.3458 C.3     1  UNL1        0.0306
     32 C          64.5048   91.4444   14.1959 C.3     1  UNL1        0.2352
     33 O          65.6779   92.3685   14.0542 O.3     1  UNL1       -0.4404
     34 C          65.8085   92.7330   12.6051 C.2     1  UNL1        0.3413
     35 O          66.8488   93.6375   12.0138 O.2     1  UNL1       -0.2449
@<TRIPOS>BOND
     1    17    18    1
     2    18    11    1
     3    11    12   ar
     4    12    13   ar
     5    13     8    1
     6     8     9    1
     7     8     7    1
     8     7     1    1
     9     1     2    1
    10     2     3    1
    11     3     4    1
    12     4    21    1
    13    21    22    1
    14    22    23    1
    15    22    25    1
    16    25    26   ar
    17    26    27   ar
    18    27    28   ar
    19    28    29   ar
    20    29    30   ar
    21    30    31    1
    22    29    32    1
    23    32    33    1
    24    33    34    1
    25    34    35    2
    26     4     5    1
    27     5     6    1
    28    13    14   ar
    29    14    15   ar
    30    15    16   ar
    31    16    19    1
    32    19    20    3
    33    16    11   ar
    34     6     1    1
    35    30    25   ar
    36    34    28    1
    37     9    10    1
    38    23    24    1
@<TRIPOS>MOLECULE
*****
 35 38 0 0 0
SMALL
GASTEIGER

@<TRIPOS>ATOM
      1 N          63.7491   84.2468   14.4689 N.3     1  UNL1       -0.2679
      2 C          62.6207   84.3672   15.4498 C.3     1  UNL1        0.0897
      3 C          62.4612   85.6197   16.2595 C.3     1  UNL1        0.0897
      4 N          63.4303   86.7519   16.0883 N.3     1  UNL1       -0.2680
      5 C          64.5587   86.6315   15.1074 C.3     1  UNL1        0.0897
      6 C          64.7181   85.3789   14.2978 C.3     1  UNL1        0.0897
      7 C          63.9086   82.9942   13.6592 C.3     1  UNL1        0.1080
      8 C          64.1119   83.0809   12.1756 C.3     1  UNL1        0.1661
      9 O          65.1150   82.1914   11.5029 O.3     1  UNL1       -0.3771
     10 H          65.5411   81.6255   12.1655 H       1  UNL1        0.2109
     11 C          62.7622   85.1665    9.0808 C.ar    1  UNL1        0.1510
     12 C          63.5619   84.1904    9.8917 C.ar    1  UNL1        0.0548
     13 C          63.3122   84.0571   11.3648 C.ar    1  UNL1        0.0901
     14 N          62.2629   84.9000   12.0269 N.ar    1  UNL1       -0.2448
     15 C          61.4633   85.8761   11.2160 C.ar    1  UNL1        0.1118
     16 C          61.7129   86.0094    9.7430 C.ar    1  UNL1        0.1213
     17 C          62.1429   84.5651    6.6303 C.3     1  UNL1        0.2525
     18 O          63.0117   85.2999    7.6077 O.3     1  UNL1       -0.4707
     19 C          60.9131   86.9857    8.9321 C.1     1  UNL1        0.1051
     20 N          60.1134   87.9619    8.1212 N.1     1  UNL1       -0.1907
     21 C          63.2708   88.0045   16.8980 C.3     1  UNL1        0.1064
     22 C          62.7554   89.2555   16.2505 C.3     1  UNL1        0.1483
     23 O          61.2780   89.4748   16.1127 O.3     1  UNL1       -0.3786
     24 H          61.1167   90.3256   15.6756 H       1  UNL1        0.2108
     25 C          63.7176   90.2874   15.7408 C.ar    1  UNL1        0.0015
     26 C          64.3535   91.2554   16.6938 C.ar    1  UNL1       -0.0020
     27 C          65.3156   92.2872   16.1842 C.ar    1  UNL1        0.0060
     28 C          65.6418   92.3509   14.7215 C.ar    1  UNL1        0.0748
     29 C          65.0059   91.3828   13.7684 C.ar    1  UNL1        0.0233
     30 C          64.0438   90.3510   14.2780 C.ar    1  UNL1       -0.0238
     31 C          63.4078   89.3828   13.3250 C.3     1  UNL1        0.0306
     32 C          65.5167   91.6851   12.3909 C.3     1  UNL1        0.2352
     33 O          66.4684   92.8400   12.4926 O.3     1  UNL1       -0.4404
     34 C          66.5457   93.2516   13.9330 C.2     1  UNL1        0.3413
     35 O          67.3803   94.3677   14.4874 O.2     1  UNL1       -0.2449
@<TRIPOS>BOND
     1    17    18    1
     2    18    11    1
     3    11    12   ar
     4    12    13   ar
     5    13     8    1
     6     8     9    1
     7     8     7    1
     8     7     1    1
     9     1     2    1
    10     2     3    1
    11     3     4    1
    12     4    21    1
    13    21    22    1
    14    22    23    1
    15    22    25    1
    16    25    26   ar
    17    26    27   ar
    18    27    28   ar
    19    28    29   ar
    20    29    30   ar
    21    30    31    1
    22    29    32    1
    23    32    33    1
    24    33    34    1
    25    34    35    2
    26     4     5    1
    27     5     6    1
    28    13    14   ar
    29    14    15   ar
    30    15    16   ar
    31    16    19    1
    32    19    20    3
    33    16    11   ar
    34     6     1    1
    35    30    25   ar
    36    34    28    1
    37     9    10    1
    38    23    24    1
@<TRIPOS>MOLECULE
*****
 35 38 0 0 0
SMALL
GASTEIGER

@<TRIPOS>ATOM
      1 N          63.8333   89.1267   15.4571 N.3     1  UNL1       -0.2679
      2 C          63.0484   88.5140   16.5790 C.3     1  UNL1        0.0897
      3 C          63.0308   87.0246   16.7560 C.3     1  UNL1        0.0897
      4 N          63.7981   86.1479   15.8111 N.3     1  UNL1       -0.2680
      5 C          64.5829   86.7606   14.6892 C.3     1  UNL1        0.0897
      6 C          64.6005   88.2500   14.5122 C.3     1  UNL1        0.0897
      7 C          63.8509   90.6160   15.2801 C.3     1  UNL1        0.1080
      8 C          64.1027   91.2074   13.9247 C.3     1  UNL1        0.1661
      9 O          65.1901   92.2239   13.7402 O.3     1  UNL1       -0.3771
     10 H          65.6301   92.3846   14.5897 H       1  UNL1        0.2109
     11 C          61.2318   89.4817   11.7964 C.ar    1  UNL1        0.1510
     12 C          62.0676   89.9070   12.9671 C.ar    1  UNL1        0.0548
     13 C          63.2670   90.7822   12.7539 C.ar    1  UNL1        0.0901
     14 N          63.6306   91.2322   11.3700 N.ar    1  UNL1       -0.2448
     15 C          62.7948   90.8069   10.1992 C.ar    1  UNL1        0.1118
     16 C          61.5954   89.9317   10.4124 C.ar    1  UNL1        0.1213
     17 C          58.7269   89.2129   12.4312 C.3     1  UNL1        0.2525
     18 O          60.0324   88.6065   12.0095 O.3     1  UNL1       -0.4707
     19 C          60.7597   89.5065    9.2416 C.1     1  UNL1        0.1051
     20 N          59.9239   89.0813    8.0708 N.1     1  UNL1       -0.1907
     21 C          63.7804   84.6585   15.9881 C.3     1  UNL1        0.1064
     22 C          63.0079   83.7987   15.0321 C.3     1  UNL1        0.1483
     23 O          62.3451   82.5442   15.5191 O.3     1  UNL1       -0.3786
     24 H          61.8917   82.1101   14.7796 H       1  UNL1        0.2108
     25 C          62.8982   84.1933   13.5890 C.ar    1  UNL1        0.0015
     26 C          62.0751   85.3846   13.1978 C.ar    1  UNL1       -0.0020
     27 C          61.9654   85.7793   11.7548 C.ar    1  UNL1        0.0060
     28 C          62.6788   84.9825   10.7031 C.ar    1  UNL1        0.0748
     29 C          63.5019   83.7911   11.0943 C.ar    1  UNL1        0.0233
     30 C          63.6116   83.3965   12.5373 C.ar    1  UNL1       -0.0238
     31 C          64.4348   82.2050   12.9286 C.3     1  UNL1        0.0306
     32 C          64.0877   83.2021    9.8453 C.3     1  UNL1        0.2352
     33 O          63.6267   84.0294    8.6822 O.3     1  UNL1       -0.4404
     34 C          62.7559   85.1298    9.2123 C.2     1  UNL1        0.3413
     35 O          62.0808   86.1911    8.3951 O.2     1  UNL1       -0.2449
@<TRIPOS>BOND
     1    17    18    1
     2    18    11    1
     3    11    12   ar
     4    12    13   ar
     5    13     8    1
     6     8     9    1
     7     8     7    1
     8     7     1    1
     9     1     2    1
    10     2     3    1
    11     3     4    1
    12     4    21    1
    13    21    22    1
    14    22    23    1
    15    22    25    1
    16    25    26   ar
    17    26    27   ar
    18    27    28   ar
    19    28    29   ar
    20    29    30   ar
    21    30    31    1
    22    29    32    1
    23    32    33    1
    24    33    34    1
    25    34    35    2
    26     4     5    1
    27     5     6    1
    28    13    14   ar
    29    14    15   ar
    30    15    16   ar
    31    16    19    1
    32    19    20    3
    33    16    11   ar
    34     6     1    1
    35    30    25   ar
    36    34    28    1
    37     9    10    1
    38    23    24    1
@<TRIPOS>MOLECULE
*****
 35 38 0 0 0
SMALL
GASTEIGER

@<TRIPOS>ATOM
      1 N          62.2555   90.1403   12.4141 N.3     1  UNL1       -0.2679
      2 C          62.5208   89.7671   13.8425 C.3     1  UNL1        0.0897
      3 C          63.7789   90.2280   14.5168 C.3     1  UNL1        0.0897
      4 N          64.7718   91.0621   13.7627 N.3     1  UNL1       -0.2680
      5 C          64.5065   91.4353   12.3343 C.3     1  UNL1        0.0897
      6 C          63.2484   90.9744   11.6600 C.3     1  UNL1        0.0897
      7 C          60.9974   89.6795   11.7397 C.3     1  UNL1        0.1080
      8 C          61.0735   88.9200   10.4484 C.3     1  UNL1        0.1661
      9 O          60.5083   89.5162    9.1933 O.3     1  UNL1       -0.3771
     10 H          60.1340   90.3891    9.3901 H       1  UNL1        0.2109
     11 C          62.6673   85.5615    9.0591 C.ar    1  UNL1        0.1510
     12 C          62.0261   86.9171    9.0954 C.ar    1  UNL1        0.0548
     13 C          61.7146   87.5645   10.4122 C.ar    1  UNL1        0.0901
     14 N          62.0444   86.8562   11.6927 N.ar    1  UNL1       -0.2448
     15 C          62.6855   85.5007   11.6564 C.ar    1  UNL1        0.1118
     16 C          62.9970   84.8533   10.3396 C.ar    1  UNL1        0.1213
     17 C          61.9028   84.7619    6.7084 C.3     1  UNL1        0.2525
     18 O          62.9787   84.9141    7.7423 O.3     1  UNL1       -0.4707
     19 C          63.6382   83.4977   10.3034 C.1     1  UNL1        0.1051
     20 N          64.2795   82.1422   10.2672 N.1     1  UNL1       -0.1907
     21 C          66.0299   91.5229   14.4370 C.3     1  UNL1        0.1064
     22 C          66.6034   92.8707   14.1140 C.3     1  UNL1        0.1483
     23 O          67.0387   93.7853   15.2204 O.3     1  UNL1       -0.3786
     24 H          67.3832   94.6094   14.8421 H       1  UNL1        0.2108
     25 C          66.7417   93.3040   12.6846 C.ar    1  UNL1        0.0015
     26 C          65.9565   94.4769   12.1771 C.ar    1  UNL1       -0.0020
     27 C          66.0948   94.9102   10.7477 C.ar    1  UNL1        0.0060
     28 C          67.0184   94.1705    9.8258 C.ar    1  UNL1        0.0748
     29 C          67.8036   92.9976   10.3333 C.ar    1  UNL1        0.0233
     30 C          67.6654   92.5643   11.7627 C.ar    1  UNL1       -0.0238
     31 C          68.4506   91.3913   12.2702 C.3     1  UNL1        0.0306
     32 C          68.6294   92.4669    9.1991 C.3     1  UNL1        0.2352
     33 O          68.3544   93.3118    7.9906 O.3     1  UNL1       -0.4404
     34 C          67.3588   94.3648    8.3779 C.2     1  UNL1        0.3413
     35 O          66.8014   95.4256    7.4758 O.2     1  UNL1       -0.2449
@<TRIPOS>BOND
     1    17    18    1
     2    18    11    1
     3    11    12   ar
     4    12    13   ar
     5    13     8    1
     6     8     9    1
     7     8     7    1
     8     7     1    1
     9     1     2    1
    10     2     3    1
    11     3     4    1
    12     4    21    1
    13    21    22    1
    14    22    23    1
    15    22    25    1
    16    25    26   ar
    17    26    27   ar
    18    27    28   ar
    19    28    29   ar
    20    29    30   ar
    21    30    31    1
    22    29    32    1
    23    32    33    1
    24    33    34    1
    25    34    35    2
    26     4     5    1
    27     5     6    1
    28    13    14   ar
    29    14    15   ar
    30    15    16   ar
    31    16    19    1
    32    19    20    3
    33    16    11   ar
    34     6     1    1
    35    30    25   ar
    36    34    28    1
    37     9    10    1
    38    23    24    1
