@<TRIPOS>MOLECULE
*****
 26 29 0 0 0
SMALL
GASTEIGER

@<TRIPOS>ATOM
      1 O          63.4048   91.5666   12.7522 O.2     1  UNL1       -0.2719
      2 C          63.8796   90.5936   13.7904 C.2     1  UNL1        0.2570
      3 N          63.7480   89.1185   13.5518 N.am    1  UNL1       -0.2738
      4 C          63.1415   88.6165   12.2750 C.3     1  UNL1        0.1149
      5 C          63.0099   87.1414   12.0364 C.3     1  UNL1        0.1121
      6 N          63.4847   86.1685   13.0746 N.pl3   1  UNL1       -0.3071
      7 C          64.0912   86.6705   14.3514 C.3     1  UNL1        0.1121
      8 C          64.2228   88.1455   14.5900 C.3     1  UNL1        0.1149
      9 C          63.3531   84.6934   12.8360 C.2     1  UNL1        0.0295
     10 C          64.0427   84.0585   11.6650 C.2     1  UNL1        0.0120
     11 C          63.9112   82.5834   11.4265 C.2     1  UNL1        0.0216
     12 C          63.0899   81.7433   12.3590 C.2     1  UNL1        0.1008
     13 N          62.7798   80.2758   12.3782 N.2     1  UNL1       -0.1482
     14 N          61.8985   80.0038   13.5612 N.2     1  UNL1       -0.1467
     15 C          61.6639   81.3031   14.2730 C.2     1  UNL1        0.1198
     16 C          62.4003   82.3782   13.5301 C.2     1  UNL1        0.0238
     17 C          62.5319   83.8532   13.7686 C.3     1  UNL1        0.0705
     18 C          64.4860   91.0956   15.0672 C.3     1  UNL1        0.2096
     19 O          63.7093   91.0174   16.3479 O.3     1  UNL1       -0.3719
     20 H          62.8415   90.6196   16.1760 H       1  UNL1        0.2114
     21 C          65.8693   91.6758   15.0631 C.ar    1  UNL1        0.0131
     22 C          66.3354   92.5117   16.2181 C.ar    1  UNL1       -0.0015
     23 C          67.7186   93.0919   16.2141 C.ar    1  UNL1       -0.0002
     24 C          68.6358   92.8362   15.0550 C.ar    1  UNL1       -0.0000
     25 C          68.1697   92.0004   13.8999 C.ar    1  UNL1       -0.0002
     26 C          66.7864   91.4202   13.9040 C.ar    1  UNL1       -0.0015
@<TRIPOS>BOND
     1     1     2    2
     2     2    18    1
     3    18    19    1
     4    18    21    1
     5    21    22   ar
     6    22    23   ar
     7    23    24   ar
     8    24    25   ar
     9    25    26   ar
    10     2     3   am
    11     3     4    1
    12     4     5    1
    13     5     6    1
    14     6     9    1
    15     9    10    2
    16    10    11    1
    17    11    12    2
    18    12    13    1
    19    13    14    2
    20    14    15    1
    21    15    16    2
    22    16    17    1
    23     6     7    1
    24     7     8    1
    25    26    21   ar
    26     8     3    1
    27    17     9    1
    28    16    12    1
    29    19    20    1
@<TRIPOS>MOLECULE
*****
 26 29 0 0 0
SMALL
GASTEIGER

@<TRIPOS>ATOM
      1 O          65.9181   91.4659   14.9172 O.2     1  UNL1       -0.2719
      2 C          65.5849   91.9797   13.5478 C.2     1  UNL1        0.2570
      3 N          64.6295   91.2218   12.6744 N.am    1  UNL1       -0.2738
      4 C          64.0073   89.9503   13.1704 C.3     1  UNL1        0.1149
      5 C          63.0518   89.1925   12.2969 C.3     1  UNL1        0.1121
      6 N          62.7186   89.7062   10.9276 N.pl3   1  UNL1       -0.3071
      7 C          63.3409   90.9777   10.4317 C.3     1  UNL1        0.1121
      8 C          64.2963   91.7355   11.3051 C.3     1  UNL1        0.1149
      9 C          61.7632   88.9483   10.0541 C.2     1  UNL1        0.0295
     10 C          60.3981   89.5046    9.7767 C.2     1  UNL1        0.0120
     11 C          59.4427   88.7468    8.9032 C.2     1  UNL1        0.0216
     12 C          59.8525   87.4327    8.3072 C.2     1  UNL1        0.1008
     13 N          59.1310   86.4669    7.4146 N.2     1  UNL1       -0.1482
     14 N          60.0502   85.3138    7.1404 N.2     1  UNL1       -0.1467
     15 C          61.3398   85.5668    7.8635 C.2     1  UNL1        0.1198
     16 C          61.2176   86.8764    8.5847 C.2     1  UNL1        0.0238
     17 C          62.1730   87.6343    9.4581 C.3     1  UNL1        0.0705
     18 C          66.2071   93.2512   13.0519 C.3     1  UNL1        0.2096
     19 O          66.1834   94.4818   13.9091 O.3     1  UNL1       -0.3719
     20 H          65.7319   94.2852   14.7447 H       1  UNL1        0.2114
     21 C          66.8531   93.2920   11.6987 C.ar    1  UNL1        0.0131
     22 C          67.7359   92.1635   11.2548 C.ar    1  UNL1       -0.0015
     23 C          68.3819   92.2042    9.9016 C.ar    1  UNL1       -0.0002
     24 C          68.1450   93.3734    8.9924 C.ar    1  UNL1       -0.0000
     25 C          67.2622   94.5020    9.4362 C.ar    1  UNL1       -0.0002
     26 C          66.6162   94.4612   10.7895 C.ar    1  UNL1       -0.0015
@<TRIPOS>BOND
     1     1     2    2
     2     2    18    1
     3    18    19    1
     4    18    21    1
     5    21    22   ar
     6    22    23   ar
     7    23    24   ar
     8    24    25   ar
     9    25    26   ar
    10     2     3   am
    11     3     4    1
    12     4     5    1
    13     5     6    1
    14     6     9    1
    15     9    10    2
    16    10    11    1
    17    11    12    2
    18    12    13    1
    19    13    14    2
    20    14    15    1
    21    15    16    2
    22    16    17    1
    23     6     7    1
    24     7     8    1
    25    26    21   ar
    26     8     3    1
    27    17     9    1
    28    16    12    1
    29    19    20    1
@<TRIPOS>MOLECULE
*****
 26 29 0 0 0
SMALL
GASTEIGER

@<TRIPOS>ATOM
      1 O          60.9437   89.4310    8.9244 O.2     1  UNL1       -0.2719
      2 C          61.5128   88.8880   10.2016 C.2     1  UNL1        0.2570
      3 N          62.5287   89.6825   10.9676 N.am    1  UNL1       -0.2738
      4 C          62.9755   91.0200   10.4564 C.3     1  UNL1        0.1149
      5 C          63.9914   91.8145   11.2224 C.3     1  UNL1        0.1121
      6 N          64.5604   91.2715   12.4996 N.pl3   1  UNL1       -0.3071
      7 C          64.1136   89.9340   13.0108 C.3     1  UNL1        0.1121
      8 C          63.0978   89.1395   12.2448 C.3     1  UNL1        0.1149
      9 C          65.5764   92.0660   13.2656 C.2     1  UNL1        0.0295
     10 C          65.7658   93.5243   12.9705 C.2     1  UNL1        0.0120
     11 C          66.7818   94.3188   13.7366 C.2     1  UNL1        0.0216
     12 C          67.6082   93.6548   14.7977 C.2     1  UNL1        0.1008
     13 N          68.6783   94.1771   15.7099 N.2     1  UNL1       -0.1482
     14 N          69.1502   93.0414   16.5687 N.2     1  UNL1       -0.1467
     15 C          68.3717   91.8173   16.1874 C.2     1  UNL1        0.1198
     16 C          67.4187   92.1963   15.0928 C.2     1  UNL1        0.0238
     17 C          66.4028   91.4019   14.3268 C.3     1  UNL1        0.0705
     18 C          61.0660   87.5505   10.7128 C.3     1  UNL1        0.2096
     19 O          59.8106   87.4396   11.5261 O.3     1  UNL1       -0.3719
     20 H          59.4126   88.3183   11.6279 H       1  UNL1        0.2114
     21 C          61.8748   86.3238   10.4107 C.ar    1  UNL1        0.0131
     22 C          62.1750   85.3365   11.4993 C.ar    1  UNL1       -0.0015
     23 C          62.9837   84.1098   11.1973 C.ar    1  UNL1       -0.0002
     24 C          63.4922   83.8704    9.8065 C.ar    1  UNL1       -0.0000
     25 C          63.1920   84.8577    8.7179 C.ar    1  UNL1       -0.0002
     26 C          62.3832   86.0844    9.0200 C.ar    1  UNL1       -0.0015
@<TRIPOS>BOND
     1     1     2    2
     2     2    18    1
     3    18    19    1
     4    18    21    1
     5    21    22   ar
     6    22    23   ar
     7    23    24   ar
     8    24    25   ar
     9    25    26   ar
    10     2     3   am
    11     3     4    1
    12     4     5    1
    13     5     6    1
    14     6     9    1
    15     9    10    2
    16    10    11    1
    17    11    12    2
    18    12    13    1
    19    13    14    2
    20    14    15    1
    21    15    16    2
    22    16    17    1
    23     6     7    1
    24     7     8    1
    25    26    21   ar
    26     8     3    1
    27    17     9    1
    28    16    12    1
    29    19    20    1
@<TRIPOS>MOLECULE
*****
 26 29 0 0 0
SMALL
GASTEIGER

@<TRIPOS>ATOM
      1 O          63.5179   90.4464   17.2121 O.2     1  UNL1       -0.2719
      2 C          63.8538   90.0678   15.8001 C.2     1  UNL1        0.2570
      3 N          63.7550   88.6360   15.3638 N.am    1  UNL1       -0.2738
      4 C          63.3204   87.5830   16.3396 C.3     1  UNL1        0.1149
      5 C          63.2217   86.1512   15.9033 C.3     1  UNL1        0.1121
      6 N          63.5575   85.7725   14.4913 N.pl3   1  UNL1       -0.3071
      7 C          63.9921   86.8256   13.5155 C.3     1  UNL1        0.1121
      8 C          64.0909   88.2573   13.9518 C.3     1  UNL1        0.1149
      9 C          63.4588   84.3407   14.0550 C.2     1  UNL1        0.0295
     10 C          64.5457   83.7353   13.2173 C.2     1  UNL1        0.0120
     11 C          64.4470   82.3035   12.7810 C.2     1  UNL1        0.0216
     12 C          63.2612   81.4773   13.1824 C.2     1  UNL1        0.1008
     13 N          62.8918   80.0503   12.9044 N.2     1  UNL1       -0.1482
     14 N          61.5764   79.7739   13.5703 N.2     1  UNL1       -0.1467
     15 C          61.1329   81.0300   14.2598 C.2     1  UNL1        0.1198
     16 C          62.1742   82.0828   14.0201 C.2     1  UNL1        0.0238
     17 C          62.2730   83.5145   14.4564 C.3     1  UNL1        0.0705
     18 C          64.2884   91.1208   14.8243 C.3     1  UNL1        0.2096
     19 O          63.3385   91.6025   13.7682 O.3     1  UNL1       -0.3719
     20 H          62.4934   91.1346   13.8557 H       1  UNL1        0.2114
     21 C          65.6730   91.6922   14.9048 C.ar    1  UNL1        0.0131
     22 C          66.6511   91.4470   13.7943 C.ar    1  UNL1       -0.0015
     23 C          68.0358   92.0183   13.8747 C.ar    1  UNL1       -0.0002
     24 C          68.4423   92.8347   15.0656 C.ar    1  UNL1       -0.0000
     25 C          67.4642   93.0799   16.1761 C.ar    1  UNL1       -0.0002
     26 C          66.0795   92.5085   16.0956 C.ar    1  UNL1       -0.0015
@<TRIPOS>BOND
     1     1     2    2
     2     2    18    1
     3    18    19    1
     4    18    21    1
     5    21    22   ar
     6    22    23   ar
     7    23    24   ar
     8    24    25   ar
     9    25    26   ar
    10     2     3   am
    11     3     4    1
    12     4     5    1
    13     5     6    1
    14     6     9    1
    15     9    10    2
    16    10    11    1
    17    11    12    2
    18    12    13    1
    19    13    14    2
    20    14    15    1
    21    15    16    2
    22    16    17    1
    23     6     7    1
    24     7     8    1
    25    26    21   ar
    26     8     3    1
    27    17     9    1
    28    16    12    1
    29    19    20    1
@<TRIPOS>MOLECULE
*****
 26 29 0 0 0
SMALL
GASTEIGER

@<TRIPOS>ATOM
      1 O          59.5685   88.1209   11.9118 O.2     1  UNL1       -0.2719
      2 C          60.5818   88.7413   10.9962 C.2     1  UNL1        0.2570
      3 N          61.7329   89.5160   11.5662 N.am    1  UNL1       -0.2738
      4 C          61.8706   89.6703   13.0519 C.3     1  UNL1        0.1149
      5 C          63.0217   90.4451   13.6219 C.3     1  UNL1        0.1121
      6 N          64.0349   91.0654   12.7063 N.pl3   1  UNL1       -0.3071
      7 C          63.8972   90.9110   11.2207 C.3     1  UNL1        0.1121
      8 C          62.7462   90.1363   10.6506 C.3     1  UNL1        0.1149
      9 C          65.1860   91.8401   13.2763 C.2     1  UNL1        0.0295
     10 C          65.5801   93.1537   12.6689 C.2     1  UNL1        0.0120
     11 C          66.7312   93.9284   13.2389 C.2     1  UNL1        0.0216
     12 C          67.4882   93.3894   14.4163 C.2     1  UNL1        0.1008
     13 N          68.6576   93.9248   15.1881 N.2     1  UNL1       -0.1482
     14 N          68.9863   92.9420   16.2726 N.2     1  UNL1       -0.1467
     15 C          68.0200   91.7993   16.1710 C.2     1  UNL1        0.1198
     16 C          67.0941   92.0758   15.0238 C.2     1  UNL1        0.0238
     17 C          65.9430   91.3011   14.4538 C.3     1  UNL1        0.0705
     18 C          60.4441   88.5869    9.5106 C.3     1  UNL1        0.2096
     19 O          59.7862   89.6656    8.7022 O.3     1  UNL1       -0.3719
     20 H          59.5098   90.3865    9.2894 H       1  UNL1        0.2114
     21 C          60.9644   87.3537    8.8333 C.ar    1  UNL1        0.0131
     22 C          62.3330   86.8369    9.1646 C.ar    1  UNL1       -0.0015
     23 C          62.8533   85.6038    8.4874 C.ar    1  UNL1       -0.0002
     24 C          62.0050   84.8874    7.4788 C.ar    1  UNL1       -0.0000
     25 C          60.6363   85.4042    7.1475 C.ar    1  UNL1       -0.0002
     26 C          60.1161   86.6374    7.8248 C.ar    1  UNL1       -0.0015
@<TRIPOS>BOND
     1     1     2    2
     2     2    18    1
     3    18    19    1
     4    18    21    1
     5    21    22   ar
     6    22    23   ar
     7    23    24   ar
     8    24    25   ar
     9    25    26   ar
    10     2     3   am
    11     3     4    1
    12     4     5    1
    13     5     6    1
    14     6     9    1
    15     9    10    2
    16    10    11    1
    17    11    12    2
    18    12    13    1
    19    13    14    2
    20    14    15    1
    21    15    16    2
    22    16    17    1
    23     6     7    1
    24     7     8    1
    25    26    21   ar
    26     8     3    1
    27    17     9    1
    28    16    12    1
    29    19    20    1
@<TRIPOS>MOLECULE
*****
 26 29 0 0 0
SMALL
GASTEIGER

@<TRIPOS>ATOM
      1 O          59.9885   89.3298    7.8528 O.2     1  UNL1       -0.2719
      2 C          60.5819   88.4471    8.9105 C.2     1  UNL1        0.2570
      3 N          61.4206   89.0438   10.0016 N.am    1  UNL1       -0.2738
      4 C          61.6659   90.5232   10.0350 C.3     1  UNL1        0.1149
      5 C          62.5047   91.1198   11.1262 C.3     1  UNL1        0.1121
      6 N          63.0980   90.2371   12.1838 N.pl3   1  UNL1       -0.3071
      7 C          62.8527   88.7577   12.1503 C.3     1  UNL1        0.1121
      8 C          62.0140   88.1610   11.0592 C.3     1  UNL1        0.1149
      9 C          63.9368   90.8338   13.2749 C.2     1  UNL1        0.0295
     10 C          63.6498   90.5004   14.7089 C.2     1  UNL1        0.0120
     11 C          64.4886   91.0970   15.8001 C.2     1  UNL1        0.0216
     12 C          65.6144   92.0270   15.4571 C.2     1  UNL1        0.1008
     13 N          66.6044   92.7623   16.3111 N.2     1  UNL1       -0.1482
     14 N          67.5032   93.5501   15.4048 N.2     1  UNL1       -0.1467
     15 C          67.0688   93.3018   13.9907 C.2     1  UNL1        0.1198
     16 C          65.9014   92.3604   14.0230 C.2     1  UNL1        0.0238
     17 C          65.0626   91.7638   12.9320 C.3     1  UNL1        0.0705
     18 C          60.3365   86.9677    8.8770 C.3     1  UNL1        0.2096
     19 O          59.0106   86.4375    8.4182 O.3     1  UNL1       -0.3719
     20 H          58.4307   87.1781    8.1813 H       1  UNL1        0.2114
     21 C          61.4173   86.0185    9.3025 C.ar    1  UNL1        0.0131
     22 C          62.4444   85.5584    8.3109 C.ar    1  UNL1       -0.0015
     23 C          63.5252   84.6092    8.7363 C.ar    1  UNL1       -0.0002
     24 C          63.5788   84.1201   10.1533 C.ar    1  UNL1       -0.0000
     25 C          62.5517   84.5802   11.1449 C.ar    1  UNL1       -0.0002
     26 C          61.4709   85.5294   10.7195 C.ar    1  UNL1       -0.0015
@<TRIPOS>BOND
     1     1     2    2
     2     2    18    1
     3    18    19    1
     4    18    21    1
     5    21    22   ar
     6    22    23   ar
     7    23    24   ar
     8    24    25   ar
     9    25    26   ar
    10     2     3   am
    11     3     4    1
    12     4     5    1
    13     5     6    1
    14     6     9    1
    15     9    10    2
    16    10    11    1
    17    11    12    2
    18    12    13    1
    19    13    14    2
    20    14    15    1
    21    15    16    2
    22    16    17    1
    23     6     7    1
    24     7     8    1
    25    26    21   ar
    26     8     3    1
    27    17     9    1
    28    16    12    1
    29    19    20    1
@<TRIPOS>MOLECULE
*****
 26 29 0 0 0
SMALL
GASTEIGER

@<TRIPOS>ATOM
      1 O          62.0245   85.1532   11.9489 O.2     1  UNL1       -0.2719
      2 C          62.0169   86.5818   11.4916 C.2     1  UNL1        0.2570
      3 N          62.8015   87.6147   12.2449 N.am    1  UNL1       -0.2738
      4 C          63.5937   87.2190   13.4557 C.3     1  UNL1        0.1149
      5 C          64.3783   88.2519   14.2090 C.3     1  UNL1        0.1121
      6 N          64.3707   89.6804   13.7517 N.pl3   1  UNL1       -0.3071
      7 C          63.5785   90.0761   12.5410 C.3     1  UNL1        0.1121
      8 C          62.7939   89.0432   11.7876 C.3     1  UNL1        0.1149
      9 C          65.1553   90.7134   14.5050 C.2     1  UNL1        0.0295
     10 C          64.5261   91.4412   15.6557 C.2     1  UNL1        0.0120
     11 C          65.3107   92.4742   16.4091 C.2     1  UNL1        0.0216
     12 C          66.7245   92.7792   16.0116 C.2     1  UNL1        0.1008
     13 N          67.7372   93.7388   16.5626 N.2     1  UNL1       -0.1482
     14 N          68.9923   93.6039   15.7524 N.2     1  UNL1       -0.1467
     15 C          68.7554   92.5610   14.7006 C.2     1  UNL1        0.1198
     16 C          67.3538   92.0513   14.8608 C.2     1  UNL1        0.0238
     17 C          66.5691   91.0184   14.1075 C.3     1  UNL1        0.0705
     18 C          61.2247   86.9775   10.2809 C.3     1  UNL1        0.2096
     19 O          60.2602   88.1236   10.3574 O.3     1  UNL1       -0.3719
     20 H          60.2705   88.4956   11.2531 H       1  UNL1        0.2114
     21 C          61.3971   86.2269    8.9936 C.ar    1  UNL1        0.0131
     22 C          62.7273   85.6257    8.6484 C.ar    1  UNL1       -0.0015
     23 C          62.8998   84.8752    7.3612 C.ar    1  UNL1       -0.0002
     24 C          61.7421   84.7258    6.4192 C.ar    1  UNL1       -0.0000
     25 C          60.4119   85.3270    6.7644 C.ar    1  UNL1       -0.0002
     26 C          60.2395   86.0776    8.0516 C.ar    1  UNL1       -0.0015
@<TRIPOS>BOND
     1     1     2    2
     2     2    18    1
     3    18    19    1
     4    18    21    1
     5    21    22   ar
     6    22    23   ar
     7    23    24   ar
     8    24    25   ar
     9    25    26   ar
    10     2     3   am
    11     3     4    1
    12     4     5    1
    13     5     6    1
    14     6     9    1
    15     9    10    2
    16    10    11    1
    17    11    12    2
    18    12    13    1
    19    13    14    2
    20    14    15    1
    21    15    16    2
    22    16    17    1
    23     6     7    1
    24     7     8    1
    25    26    21   ar
    26     8     3    1
    27    17     9    1
    28    16    12    1
    29    19    20    1
@<TRIPOS>MOLECULE
*****
 26 29 0 0 0
SMALL
GASTEIGER

@<TRIPOS>ATOM
      1 O          62.3634   90.9286   10.3013 O.2     1  UNL1       -0.2719
      2 C          63.0682   90.4136   11.5212 C.2     1  UNL1        0.2570
      3 N          62.9922   88.9573   11.8726 N.am    1  UNL1       -0.2738
      4 C          62.2114   88.0160   11.0040 C.3     1  UNL1        0.1149
      5 C          62.1355   86.5597   11.3555 C.3     1  UNL1        0.1121
      6 N          62.8402   86.0448   12.5753 N.pl3   1  UNL1       -0.3071
      7 C          63.6209   86.9861   13.4438 C.3     1  UNL1        0.1121
      8 C          63.6969   88.4424   13.0925 C.3     1  UNL1        0.1149
      9 C          62.7642   84.5885   12.9267 C.2     1  UNL1        0.0295
     10 C          62.6259   84.1691   14.3602 C.2     1  UNL1        0.0120
     11 C          62.5499   82.7127   14.7116 C.2     1  UNL1        0.0216
     12 C          62.6123   81.6759   13.6294 C.2     1  UNL1        0.1008
     13 N          62.5621   80.1773   13.6712 N.2     1  UNL1       -0.1482
     14 N          62.6695   79.6706   12.2635 N.2     1  UNL1       -0.1467
     15 C          62.7860   80.8560   11.3517 C.2     1  UNL1        0.1198
     16 C          62.7507   82.0954   12.1959 C.2     1  UNL1        0.0238
     17 C          62.8266   83.5516   11.8446 C.3     1  UNL1        0.0705
     18 C          63.8489   91.3549   12.3897 C.3     1  UNL1        0.2096
     19 O          63.4248   91.5925   13.8087 O.3     1  UNL1       -0.3719
     20 H          62.6345   91.0646   14.0026 H       1  UNL1        0.2114
     21 C          65.0538   92.0587   11.8392 C.ar    1  UNL1        0.0131
     22 C          64.9155   92.9654   10.6523 C.ar    1  UNL1       -0.0015
     23 C          66.1203   93.6692   10.1017 C.ar    1  UNL1       -0.0002
     24 C          67.4634   93.4661   10.7379 C.ar    1  UNL1       -0.0000
     25 C          67.6017   92.5594   11.9248 C.ar    1  UNL1       -0.0002
     26 C          66.3968   91.8557   12.4754 C.ar    1  UNL1       -0.0015
@<TRIPOS>BOND
     1     1     2    2
     2     2    18    1
     3    18    19    1
     4    18    21    1
     5    21    22   ar
     6    22    23   ar
     7    23    24   ar
     8    24    25   ar
     9    25    26   ar
    10     2     3   am
    11     3     4    1
    12     4     5    1
    13     5     6    1
    14     6     9    1
    15     9    10    2
    16    10    11    1
    17    11    12    2
    18    12    13    1
    19    13    14    2
    20    14    15    1
    21    15    16    2
    22    16    17    1
    23     6     7    1
    24     7     8    1
    25    26    21   ar
    26     8     3    1
    27    17     9    1
    28    16    12    1
    29    19    20    1
@<TRIPOS>MOLECULE
*****
 26 29 0 0 0
SMALL
GASTEIGER

@<TRIPOS>ATOM
      1 O          61.6050   86.3108   10.9580 O.2     1  UNL1       -0.2719
      2 C          62.3905   86.1016   12.2187 C.2     1  UNL1        0.2570
      3 N          63.1448   87.2445   12.8308 N.am    1  UNL1       -0.2738
      4 C          63.1137   88.5967   12.1822 C.3     1  UNL1        0.1149
      5 C          63.8681   89.7396   12.7944 C.3     1  UNL1        0.1121
      6 N          64.6535   89.5304   14.0549 N.pl3   1  UNL1       -0.3071
      7 C          64.6846   88.1782   14.7035 C.3     1  UNL1        0.1121
      8 C          63.9303   87.0353   14.0914 C.3     1  UNL1        0.1149
      9 C          65.4079   90.6733   14.6671 C.2     1  UNL1        0.0295
     10 C          64.7569   91.5257   15.7157 C.2     1  UNL1        0.0120
     11 C          65.5113   92.6686   16.3279 C.2     1  UNL1        0.0216
     12 C          66.9167   92.9591   15.8913 C.2     1  UNL1        0.1008
     13 N          67.9014   94.0096   16.3118 N.2     1  UNL1       -0.1482
     14 N          69.1609   93.8064   15.5230 N.2     1  UNL1       -0.1467
     15 C          68.9547   92.6303   14.6150 C.2     1  UNL1        0.1198
     16 C          67.5676   92.1067   14.8427 C.2     1  UNL1        0.0238
     17 C          66.8132   90.9638   14.2306 C.3     1  UNL1        0.0705
     18 C          62.4216   84.7494   12.8672 C.3     1  UNL1        0.2096
     19 O          62.0516   84.6025   14.3133 O.3     1  UNL1       -0.3719
     20 H          61.8196   85.4711   14.6776 H       1  UNL1        0.2114
     21 C          62.8229   83.5441   12.0695 C.ar    1  UNL1        0.0131
     22 C          63.6073   83.7109   10.8019 C.ar    1  UNL1       -0.0015
     23 C          64.0086   82.5056   10.0042 C.ar    1  UNL1       -0.0002
     24 C          63.6254   81.1336   10.4740 C.ar    1  UNL1       -0.0000
     25 C          62.8409   80.9668   11.7416 C.ar    1  UNL1       -0.0002
     26 C          62.4397   82.1722   12.5393 C.ar    1  UNL1       -0.0015
@<TRIPOS>BOND
     1     1     2    2
     2     2    18    1
     3    18    19    1
     4    18    21    1
     5    21    22   ar
     6    22    23   ar
     7    23    24   ar
     8    24    25   ar
     9    25    26   ar
    10     2     3   am
    11     3     4    1
    12     4     5    1
    13     5     6    1
    14     6     9    1
    15     9    10    2
    16    10    11    1
    17    11    12    2
    18    12    13    1
    19    13    14    2
    20    14    15    1
    21    15    16    2
    22    16    17    1
    23     6     7    1
    24     7     8    1
    25    26    21   ar
    26     8     3    1
    27    17     9    1
    28    16    12    1
    29    19    20    1
