@<TRIPOS>MOLECULE
*****
 36 40 0 0 0
SMALL
GASTEIGER

@<TRIPOS>ATOM
      1 C          63.8896   85.2755   16.3314 C.3     1  UNL1        0.0731
      2 N          63.8679   84.7781   14.9164 N.3     1  UNL1       -0.2712
      3 C          64.5962   83.5757   14.3933 C.3     1  UNL1        0.0738
      4 C          64.2924   83.4502   12.9297 C.3     1  UNL1        0.0372
      5 C          64.5548   82.6296   11.7019 C.3     1  UNL1        0.0245
      6 C          63.8009   83.2472   10.5616 C.3     1  UNL1        0.0909
      7 N          63.0725   84.4497   11.0848 N.pl3   1  UNL1       -0.3077
      8 C          63.3763   84.5751   12.5483 C.3     1  UNL1        0.0901
      9 C          63.1139   85.3958   13.7762 C.3     1  UNL1        0.0921
     10 C          62.1945   85.3658   10.2849 C.ar    1  UNL1        0.0478
     11 C          62.1882   85.2801    8.7874 C.ar    1  UNL1        0.0145
     12 C          61.3102   86.1962    7.9874 C.ar    1  UNL1        0.0051
     13 C          60.4385   87.1980    8.6850 C.ar    1  UNL1        0.0715
     14 C          60.4448   87.2836   10.1826 C.ar    1  UNL1        0.0051
     15 C          61.3228   86.3675   10.9825 C.ar    1  UNL1        0.0145
     16 C          59.5605   88.1141    7.8851 C.3     1  UNL1        0.4186
     17 F          58.6826   89.0302    7.0851 F       1  UNL1       -0.1659
     18 F          58.9667   86.9301    7.1810 F       1  UNL1       -0.1659
     19 F          60.1544   89.2980    8.5891 F       1  UNL1       -0.1659
     20 C          62.7848   86.1571   16.8335 C.3     1  UNL1        0.0294
     21 C          63.0953   87.5351   17.3381 C.3     1  UNL1        0.0666
     22 S          62.4640   88.7313   16.6894 S.3     1  UNL1       -0.0756
     23 C          64.1549   88.7833   13.8988 C.3     1  UNL1        0.1340
     24 N          64.1001   89.8833   14.9171 N.ar    1  UNL1       -0.2884
     25 C          63.3228   89.8594   16.1998 C.ar    1  UNL1        0.1932
     26 N          63.5552   91.1617   16.9070 N.ar    1  UNL1       -0.1221
     27 N          64.4760   91.9905   16.0613 N.ar    1  UNL1       -0.1282
     28 C          64.8128   91.2005   14.8315 C.ar    1  UNL1        0.1683
     29 C          65.7056   91.6488   13.7126 C.ar    1  UNL1        0.0534
     30 C          67.1888   91.4480   13.8101 C.ar    1  UNL1        0.0094
     31 C          68.0816   91.8964   12.6912 C.ar    1  UNL1        0.0609
     32 C          67.4909   92.5455   11.4747 C.ar    1  UNL1        0.2610
     33 O          68.3836   92.9939   10.3557 O.2     1  UNL1       -0.2670
     34 N          66.0076   92.7463   11.3771 N.ar    1  UNL1       -0.2921
     35 C          65.4171   93.3955   10.1606 C.3     1  UNL1        0.1336
     36 C          65.1149   92.2980   12.4961 C.ar    1  UNL1        0.0814
@<TRIPOS>BOND
     1    23    24    1
     2    24    25   ar
     3    25    22    1
     4    22    21    1
     5    21    20    1
     6    20     1    1
     7     1     2    1
     8     2     3    1
     9     3     4    1
    10     4     5    1
    11     5     6    1
    12     6     7    1
    13     7    10    1
    14    10    11   ar
    15    11    12   ar
    16    12    13   ar
    17    13    16    1
    18    16    17    1
    19    16    18    1
    20    16    19    1
    21    13    14   ar
    22    14    15   ar
    23     7     8    1
    24     8     9    1
    25    25    26   ar
    26    26    27   ar
    27    27    28   ar
    28    28    29    1
    29    29    30   ar
    30    30    31   ar
    31    31    32   ar
    32    32    33    2
    33    32    34   ar
    34    34    35    1
    35    34    36   ar
    36    28    24   ar
    37    36    29   ar
    38     9     2    1
    39     8     4    1
    40    15    10   ar
@<TRIPOS>MOLECULE
*****
 36 40 0 0 0
SMALL
GASTEIGER

@<TRIPOS>ATOM
      1 C          60.9726   86.3837    8.0866 C.3     1  UNL1        0.0731
      2 N          61.8528   85.6364    9.0441 N.3     1  UNL1       -0.2712
      3 C          62.7550   84.4885    8.7001 C.3     1  UNL1        0.0738
      4 C          63.4450   84.0485    9.9572 C.3     1  UNL1        0.0372
      5 C          64.4291   83.0671   10.5214 C.3     1  UNL1        0.0245
      6 C          64.5617   83.3364   11.9911 C.3     1  UNL1        0.0909
      7 N          63.6594   84.4844   12.3351 N.pl3   1  UNL1       -0.3077
      8 C          62.9693   84.9244   11.0781 C.3     1  UNL1        0.0901
      9 C          61.9852   85.9058   10.5138 C.3     1  UNL1        0.0921
     10 C          63.4790   85.0865   13.6971 C.ar    1  UNL1        0.0478
     11 C          62.6646   84.3690   14.7324 C.ar    1  UNL1        0.0145
     12 C          62.4842   84.9712   16.0944 C.ar    1  UNL1        0.0051
     13 C          63.1181   86.2908   16.4209 C.ar    1  UNL1        0.0715
     14 C          63.9325   87.0084   15.3855 C.ar    1  UNL1        0.0051
     15 C          64.1129   86.4062   14.0236 C.ar    1  UNL1        0.0145
     16 C          62.9376   86.8930   17.7829 C.3     1  UNL1        0.4186
     17 F          62.7572   87.4951   19.1448 F       1  UNL1       -0.1659
     18 F          62.4317   85.5779   18.2973 F       1  UNL1       -0.1659
     19 F          63.4436   88.2080   17.2685 F       1  UNL1       -0.1659
     20 C          60.0722   87.4729    8.5895 C.3     1  UNL1        0.0294
     21 C          60.6265   88.8411    8.8558 C.3     1  UNL1        0.0666
     22 S          60.1611   89.6193   10.0507 S.3     1  UNL1       -0.0756
     23 C          63.0104   91.2071    9.9518 C.3     1  UNL1        0.1340
     24 N          62.3977   90.5701   11.1637 N.ar    1  UNL1       -0.2884
     25 C          61.0880   89.8402   11.2092 C.ar    1  UNL1        0.1932
     26 N          60.8679   89.3701   12.6165 N.ar    1  UNL1       -0.1221
     27 N          62.0416   89.8094   13.4409 N.ar    1  UNL1       -0.1282
     28 C          62.9871   90.5510   12.5430 C.ar    1  UNL1        0.1683
     29 C          64.2927   91.1657   12.9525 C.ar    1  UNL1        0.0534
     30 C          65.0492   90.6097   14.1224 C.ar    1  UNL1        0.0094
     31 C          66.3547   91.2244   14.5319 C.ar    1  UNL1        0.0609
     32 C          66.9037   92.3951   13.7715 C.ar    1  UNL1        0.2610
     33 O          68.2093   93.0097   14.1810 O.2     1  UNL1       -0.2670
     34 N          66.1472   92.9510   12.6016 N.ar    1  UNL1       -0.2921
     35 C          66.6963   94.1217   11.8413 C.3     1  UNL1        0.1336
     36 C          64.8416   92.3363   12.1922 C.ar    1  UNL1        0.0814
@<TRIPOS>BOND
     1    23    24    1
     2    24    25   ar
     3    25    22    1
     4    22    21    1
     5    21    20    1
     6    20     1    1
     7     1     2    1
     8     2     3    1
     9     3     4    1
    10     4     5    1
    11     5     6    1
    12     6     7    1
    13     7    10    1
    14    10    11   ar
    15    11    12   ar
    16    12    13   ar
    17    13    16    1
    18    16    17    1
    19    16    18    1
    20    16    19    1
    21    13    14   ar
    22    14    15   ar
    23     7     8    1
    24     8     9    1
    25    25    26   ar
    26    26    27   ar
    27    27    28   ar
    28    28    29    1
    29    29    30   ar
    30    30    31   ar
    31    31    32   ar
    32    32    33    2
    33    32    34   ar
    34    34    35    1
    35    34    36   ar
    36    28    24   ar
    37    36    29   ar
    38     9     2    1
    39     8     4    1
    40    15    10   ar
@<TRIPOS>MOLECULE
*****
 36 40 0 0 0
SMALL
GASTEIGER

@<TRIPOS>ATOM
      1 C          64.7544   83.6590   14.3758 C.3     1  UNL1        0.0731
      2 N          64.3618   84.9942   14.9353 N.3     1  UNL1       -0.2712
      3 C          63.7001   85.2352   16.2597 C.3     1  UNL1        0.0738
      4 C          63.4913   86.7128   16.4115 C.3     1  UNL1        0.0372
      5 C          62.9533   87.7749   17.3239 C.3     1  UNL1        0.0245
      6 C          63.1535   89.1037   16.6573 C.3     1  UNL1        0.0909
      7 N          63.8153   88.8627   15.3328 N.pl3   1  UNL1       -0.3077
      8 C          64.0241   87.3851   15.1810 C.3     1  UNL1        0.0901
      9 C          64.5621   86.3229   14.2687 C.3     1  UNL1        0.0921
     10 C          64.2007   89.9147   14.3354 C.ar    1  UNL1        0.0478
     11 C          63.4195   90.0646   13.0638 C.ar    1  UNL1        0.0145
     12 C          63.8049   91.1166   12.0664 C.ar    1  UNL1        0.0051
     13 C          64.9715   92.0186   12.3406 C.ar    1  UNL1        0.0715
     14 C          65.7528   91.8688   13.6123 C.ar    1  UNL1        0.0051
     15 C          65.3674   90.8168   14.6097 C.ar    1  UNL1        0.0145
     16 C          65.3569   93.0706   11.3432 C.3     1  UNL1        0.4186
     17 F          65.7422   94.1226   10.3458 F       1  UNL1       -0.1659
     18 F          64.7478   92.2516   10.2440 F       1  UNL1       -0.1659
     19 F          65.9659   93.8896   12.4424 F       1  UNL1       -0.1659
     20 C          64.0174   83.0932   13.1983 C.3     1  UNL1        0.0294
     21 C          64.6275   83.1585   11.8295 C.3     1  UNL1        0.0666
     22 S          63.7472   83.1540   10.6150 S.3     1  UNL1       -0.0756
     23 C          62.0857   85.3626   12.3504 C.3     1  UNL1        0.1340
     24 N          62.4190   85.4572   10.8909 N.ar    1  UNL1       -0.2884
     25 C          63.1827   84.4421   10.0933 C.ar    1  UNL1        0.1932
     26 N          63.2829   84.9411    8.6823 N.ar    1  UNL1       -0.1221
     27 N          62.5810   86.2647    8.6079 N.ar    1  UNL1       -0.1282
     28 C          62.0471   86.5838    9.9729 C.ar    1  UNL1        0.1683
     29 C          61.2767   87.8133   10.3531 C.ar    1  UNL1        0.0534
     30 C          61.5946   89.1280    9.7046 C.ar    1  UNL1        0.0094
     31 C          60.8241   90.3576   10.0848 C.ar    1  UNL1        0.0609
     32 C          59.7357   90.2724   11.1135 C.ar    1  UNL1        0.2610
     33 O          58.9652   91.5019   11.4937 O.2     1  UNL1       -0.2670
     34 N          59.4178   88.9577   11.7620 N.ar    1  UNL1       -0.2921
     35 C          58.3294   88.8726   12.7906 C.3     1  UNL1        0.1336
     36 C          60.1883   87.7281   11.3817 C.ar    1  UNL1        0.0814
@<TRIPOS>BOND
     1    23    24    1
     2    24    25   ar
     3    25    22    1
     4    22    21    1
     5    21    20    1
     6    20     1    1
     7     1     2    1
     8     2     3    1
     9     3     4    1
    10     4     5    1
    11     5     6    1
    12     6     7    1
    13     7    10    1
    14    10    11   ar
    15    11    12   ar
    16    12    13   ar
    17    13    16    1
    18    16    17    1
    19    16    18    1
    20    16    19    1
    21    13    14   ar
    22    14    15   ar
    23     7     8    1
    24     8     9    1
    25    25    26   ar
    26    26    27   ar
    27    27    28   ar
    28    28    29    1
    29    29    30   ar
    30    30    31   ar
    31    31    32   ar
    32    32    33    2
    33    32    34   ar
    34    34    35    1
    35    34    36   ar
    36    28    24   ar
    37    36    29   ar
    38     9     2    1
    39     8     4    1
    40    15    10   ar
@<TRIPOS>MOLECULE
*****
 36 40 0 0 0
SMALL
GASTEIGER

@<TRIPOS>ATOM
      1 C          64.6815   84.1714   14.8918 C.3     1  UNL1        0.0731
      2 N          64.3162   85.5744   15.2768 N.3     1  UNL1       -0.2712
      3 C          63.5284   85.9797   16.4872 C.3     1  UNL1        0.0738
      4 C          63.3999   87.4742   16.4774 C.3     1  UNL1        0.0372
      5 C          62.8335   88.6483   17.2195 C.3     1  UNL1        0.0245
      6 C          63.1919   89.8923   16.4617 C.3     1  UNL1        0.0909
      7 N          63.9798   89.4869   15.2513 N.pl3   1  UNL1       -0.3077
      8 C          64.1083   87.9924   15.2610 C.3     1  UNL1        0.0901
      9 C          64.6746   86.8183   14.5190 C.3     1  UNL1        0.0921
     10 C          64.5406   90.4133   14.2134 C.ar    1  UNL1        0.0478
     11 C          63.7984   90.6388   12.9296 C.ar    1  UNL1        0.0145
     12 C          64.3592   91.5652   11.8917 C.ar    1  UNL1        0.0051
     13 C          65.6623   92.2661   12.1376 C.ar    1  UNL1        0.0715
     14 C          66.4047   92.0407   13.4215 C.ar    1  UNL1        0.0051
     15 C          65.8438   91.1143   14.4594 C.ar    1  UNL1        0.0145
     16 C          66.2232   93.1926   11.0998 C.3     1  UNL1        0.4186
     17 F          66.7840   94.1190   10.0619 F       1  UNL1       -0.1659
     18 F          66.6966   92.0132   10.3029 F       1  UNL1       -0.1659
     19 F          65.7497   94.3719   11.8966 F       1  UNL1       -0.1659
     20 C          63.6237   83.1094   14.8359 C.3     1  UNL1        0.0294
     21 C          63.2933   82.4476   13.5309 C.3     1  UNL1        0.0666
     22 S          64.2144   82.6024   12.3572 S.3     1  UNL1       -0.0756
     23 C          62.1792   85.1533   12.3855 C.3     1  UNL1        0.1340
     24 N          62.8427   84.5681   11.1742 N.ar    1  UNL1       -0.2884
     25 C          63.7782   83.3956   11.1612 C.ar    1  UNL1        0.1932
     26 N          64.2009   83.1556    9.7421 N.ar    1  UNL1       -0.1221
     27 N          63.5267   84.1798    8.8781 N.ar    1  UNL1       -0.1282
     28 C          62.6873   85.0528    9.7631 C.ar    1  UNL1        0.1683
     29 C          61.8411   86.2077    9.3157 C.ar    1  UNL1        0.0534
     30 C          60.7882   86.0040    8.2668 C.ar    1  UNL1        0.0094
     31 C          59.9420   87.1588    7.8194 C.ar    1  UNL1        0.0609
     32 C          60.1487   88.5174    8.4209 C.ar    1  UNL1        0.2610
     33 O          59.3025   89.6723    7.9734 O.2     1  UNL1       -0.2670
     34 N          61.2015   88.7211    9.4697 N.ar    1  UNL1       -0.2921
     35 C          61.4081   90.0796   10.0710 C.3     1  UNL1        0.1336
     36 C          62.0477   87.5662    9.9171 C.ar    1  UNL1        0.0814
@<TRIPOS>BOND
     1    23    24    1
     2    24    25   ar
     3    25    22    1
     4    22    21    1
     5    21    20    1
     6    20     1    1
     7     1     2    1
     8     2     3    1
     9     3     4    1
    10     4     5    1
    11     5     6    1
    12     6     7    1
    13     7    10    1
    14    10    11   ar
    15    11    12   ar
    16    12    13   ar
    17    13    16    1
    18    16    17    1
    19    16    18    1
    20    16    19    1
    21    13    14   ar
    22    14    15   ar
    23     7     8    1
    24     8     9    1
    25    25    26   ar
    26    26    27   ar
    27    27    28   ar
    28    28    29    1
    29    29    30   ar
    30    30    31   ar
    31    31    32   ar
    32    32    33    2
    33    32    34   ar
    34    34    35    1
    35    34    36   ar
    36    28    24   ar
    37    36    29   ar
    38     9     2    1
    39     8     4    1
    40    15    10   ar
@<TRIPOS>MOLECULE
*****
 36 40 0 0 0
SMALL
GASTEIGER

@<TRIPOS>ATOM
      1 C          63.5613   86.4118   16.5032 C.3     1  UNL1        0.0731
      2 N          63.5909   85.7076   15.1791 N.3     1  UNL1       -0.2712
      3 C          64.3336   84.4414   14.8703 C.3     1  UNL1        0.0738
      4 C          64.0847   84.0972   13.4317 C.3     1  UNL1        0.0372
      5 C          64.3898   83.1020   12.3517 C.3     1  UNL1        0.0245
      6 C          63.6820   83.5402   11.1039 C.3     1  UNL1        0.0909
      7 N          62.9393   84.8064   11.4128 N.pl3   1  UNL1       -0.3077
      8 C          63.1882   85.1506   12.8514 C.3     1  UNL1        0.0901
      9 C          62.8830   86.1459   13.9314 C.3     1  UNL1        0.0921
     10 C          62.0958   85.5906   10.4518 C.ar    1  UNL1        0.0478
     11 C          61.1283   86.6148   10.9661 C.ar    1  UNL1        0.0145
     12 C          60.2848   87.3991   10.0051 C.ar    1  UNL1        0.0051
     13 C          60.4089   87.1590    8.5297 C.ar    1  UNL1        0.0715
     14 C          61.3766   86.1347    8.0152 C.ar    1  UNL1        0.0051
     15 C          62.2200   85.3505    8.9763 C.ar    1  UNL1        0.0145
     16 C          59.5655   87.9432    7.5686 C.3     1  UNL1        0.4186
     17 F          58.7220   88.7274    6.6076 F       1  UNL1       -0.1659
     18 F          58.8761   86.6807    7.1434 F       1  UNL1       -0.1659
     19 F          60.2548   89.2058    7.9939 F       1  UNL1       -0.1659
     20 C          62.9687   87.7857   16.6088 C.3     1  UNL1        0.0294
     21 C          63.8074   88.9902   16.2991 C.3     1  UNL1        0.0666
     22 S          63.3871   89.9382   15.2153 S.3     1  UNL1       -0.0756
     23 C          63.9950   90.7423   12.1115 C.3     1  UNL1        0.1340
     24 N          64.6071   91.3797   13.3236 N.ar    1  UNL1       -0.2884
     25 C          64.3277   91.0101   14.7502 C.ar    1  UNL1        0.1932
     26 N          65.1539   91.9006   15.6302 N.ar    1  UNL1       -0.1221
     27 N          65.9440   92.8206   14.7474 N.ar    1  UNL1       -0.1282
     28 C          65.6061   92.4987   13.3218 C.ar    1  UNL1        0.1683
     29 C          66.1685   93.1767   12.1077 C.ar    1  UNL1        0.0534
     30 C          65.8581   94.6203   11.8435 C.ar    1  UNL1        0.0094
     31 C          66.4204   95.2983   10.6293 C.ar    1  UNL1        0.0609
     32 C          67.2931   94.5326    9.6795 C.ar    1  UNL1        0.2610
     33 O          67.8555   95.2107    8.4653 O.2     1  UNL1       -0.2670
     34 N          67.6035   93.0891    9.9437 N.ar    1  UNL1       -0.2921
     35 C          68.4762   92.3236    8.9938 C.3     1  UNL1        0.1336
     36 C          67.0411   92.4111   11.1579 C.ar    1  UNL1        0.0814
@<TRIPOS>BOND
     1    23    24    1
     2    24    25   ar
     3    25    22    1
     4    22    21    1
     5    21    20    1
     6    20     1    1
     7     1     2    1
     8     2     3    1
     9     3     4    1
    10     4     5    1
    11     5     6    1
    12     6     7    1
    13     7    10    1
    14    10    11   ar
    15    11    12   ar
    16    12    13   ar
    17    13    16    1
    18    16    17    1
    19    16    18    1
    20    16    19    1
    21    13    14   ar
    22    14    15   ar
    23     7     8    1
    24     8     9    1
    25    25    26   ar
    26    26    27   ar
    27    27    28   ar
    28    28    29    1
    29    29    30   ar
    30    30    31   ar
    31    31    32   ar
    32    32    33    2
    33    32    34   ar
    34    34    35    1
    35    34    36   ar
    36    28    24   ar
    37    36    29   ar
    38     9     2    1
    39     8     4    1
    40    15    10   ar
@<TRIPOS>MOLECULE
*****
 36 40 0 0 0
SMALL
GASTEIGER

@<TRIPOS>ATOM
      1 C          58.9929   88.9549    7.0278 C.3     1  UNL1        0.0731
      2 N          59.8104   88.3459    8.1283 N.3     1  UNL1       -0.2712
      3 C          59.8399   86.8943    8.5049 C.3     1  UNL1        0.0738
      4 C          60.7897   86.7330    9.6546 C.3     1  UNL1        0.0372
      5 C          61.3949   85.7361   10.5980 C.3     1  UNL1        0.0245
      6 C          62.3265   86.4719   11.5150 C.3     1  UNL1        0.0909
      7 N          62.2969   87.9236   11.1383 N.pl3   1  UNL1       -0.3077
      8 C          61.3472   88.0849    9.9886 C.3     1  UNL1        0.0901
      9 C          60.7419   89.0818    9.0452 C.3     1  UNL1        0.0921
     10 C          63.0798   89.0212   11.7959 C.ar    1  UNL1        0.0478
     11 C          63.6518   88.8166   13.1673 C.ar    1  UNL1        0.0145
     12 C          64.4346   89.9142   13.8249 C.ar    1  UNL1        0.0051
     13 C          64.6454   91.2165   13.1111 C.ar    1  UNL1        0.0715
     14 C          64.0734   91.4212   11.7396 C.ar    1  UNL1        0.0051
     15 C          63.2906   90.3236   11.0820 C.ar    1  UNL1        0.0145
     16 C          65.4282   92.3141   13.7687 C.3     1  UNL1        0.4186
     17 F          66.2111   93.4117   14.4264 F       1  UNL1       -0.1659
     18 F          65.6343   91.4451   14.9739 F       1  UNL1       -0.1659
     19 F          65.2222   93.1830   12.5636 F       1  UNL1       -0.1659
     20 C          59.5701   90.0525    6.1840 C.3     1  UNL1        0.0294
     21 C          58.6988   90.7846    5.2069 C.3     1  UNL1        0.0666
     22 S          59.1443   92.1023    4.6456 S.3     1  UNL1       -0.0756
     23 C          59.5260   93.6418    1.7936 C.3     1  UNL1        0.1340
     24 N          60.5906   92.8965    2.5427 N.ar    1  UNL1       -0.2884
     25 C          60.4152   92.1889    3.8536 C.ar    1  UNL1        0.1932
     26 N          61.7338   91.5831    4.2335 N.ar    1  UNL1       -0.1221
     27 N          62.7242   91.9163    3.1573 N.ar    1  UNL1       -0.1282
     28 C          62.0177   92.7281    2.1123 C.ar    1  UNL1        0.1683
     29 C          62.6307   93.2752    0.8573 C.ar    1  UNL1        0.0534
     30 C          62.1212   92.8309   -0.4817 C.ar    1  UNL1        0.0094
     31 C          62.7342   93.3781   -1.7366 C.ar    1  UNL1        0.0609
     32 C          63.8566   94.3696   -1.6525 C.ar    1  UNL1        0.2610
     33 O          64.4696   94.9168   -2.9074 O.2     1  UNL1       -0.2670
     34 N          64.3661   94.8140   -0.3134 N.ar    1  UNL1       -0.2921
     35 C          65.4885   95.8055   -0.2294 C.3     1  UNL1        0.1336
     36 C          63.7531   94.2667    0.9415 C.ar    1  UNL1        0.0814
@<TRIPOS>BOND
     1    23    24    1
     2    24    25   ar
     3    25    22    1
     4    22    21    1
     5    21    20    1
     6    20     1    1
     7     1     2    1
     8     2     3    1
     9     3     4    1
    10     4     5    1
    11     5     6    1
    12     6     7    1
    13     7    10    1
    14    10    11   ar
    15    11    12   ar
    16    12    13   ar
    17    13    16    1
    18    16    17    1
    19    16    18    1
    20    16    19    1
    21    13    14   ar
    22    14    15   ar
    23     7     8    1
    24     8     9    1
    25    25    26   ar
    26    26    27   ar
    27    27    28   ar
    28    28    29    1
    29    29    30   ar
    30    30    31   ar
    31    31    32   ar
    32    32    33    2
    33    32    34   ar
    34    34    35    1
    35    34    36   ar
    36    28    24   ar
    37    36    29   ar
    38     9     2    1
    39     8     4    1
    40    15    10   ar
@<TRIPOS>MOLECULE
*****
 36 40 0 0 0
SMALL
GASTEIGER

@<TRIPOS>ATOM
      1 C          63.5295   90.0743   16.4527 C.3     1  UNL1        0.0731
      2 N          63.6666   90.4353   15.0033 N.3     1  UNL1       -0.2712
      3 C          64.5848   91.4778   14.4374 C.3     1  UNL1        0.0738
      4 C          64.3952   91.5040   12.9496 C.3     1  UNL1        0.0372
      5 C          64.8455   92.1645   11.6804 C.3     1  UNL1        0.0245
      6 C          64.0885   91.5465   10.5423 C.3     1  UNL1        0.0909
      7 N          63.1702   90.5041   11.1083 N.pl3   1  UNL1       -0.3077
      8 C          63.3598   90.4778   12.5961 C.3     1  UNL1        0.0901
      9 C          62.9095   89.8174   13.8653 C.3     1  UNL1        0.0921
     10 C          62.2279   89.6397   10.3242 C.ar    1  UNL1        0.0478
     11 C          60.9968   90.2374    9.7101 C.ar    1  UNL1        0.0145
     12 C          60.0545   89.3730    8.9260 C.ar    1  UNL1        0.0051
     13 C          60.3432   87.9110    8.7559 C.ar    1  UNL1        0.0715
     14 C          61.5744   87.3132    9.3700 C.ar    1  UNL1        0.0051
     15 C          62.5167   88.1776   10.1542 C.ar    1  UNL1        0.0145
     16 C          59.4009   87.0466    7.9718 C.3     1  UNL1        0.4186
     17 F          58.4585   86.1823    7.1877 F       1  UNL1       -0.1659
     18 F          60.1409   85.8247    8.4294 F       1  UNL1       -0.1659
     19 F          58.6608   88.2685    7.5143 F       1  UNL1       -0.1659
     20 C          62.6494   88.9302   16.8606 C.3     1  UNL1        0.0294
     21 C          63.2153   87.7989   17.6668 C.3     1  UNL1        0.0666
     22 S          62.9072   86.3805   17.2882 S.3     1  UNL1       -0.0756
     23 C          61.6511   83.9431   15.5188 C.3     1  UNL1        0.1340
     24 N          62.9351   84.6659   15.2378 N.ar    1  UNL1       -0.2884
     25 C          63.5125   85.7862   16.0511 C.ar    1  UNL1        0.1932
     26 N          64.8014   86.2080   15.4101 N.ar    1  UNL1       -0.1221
     27 N          65.0206   85.3483   14.2006 N.ar    1  UNL1       -0.1282
     28 C          63.8672   84.3952   14.0941 C.ar    1  UNL1        0.1683
     29 C          63.6790   83.3542   13.0306 C.ar    1  UNL1        0.0534
     30 C          63.9804   83.6822   11.5983 C.ar    1  UNL1        0.0094
     31 C          63.7921   82.6412   10.5349 C.ar    1  UNL1        0.0609
     32 C          63.3024   81.2722   10.9038 C.ar    1  UNL1        0.2610
     33 O          63.1142   80.2312    9.8404 O.2     1  UNL1       -0.2670
     34 N          63.0010   80.9442   12.3362 N.ar    1  UNL1       -0.2921
     35 C          62.5113   79.5752   12.7050 C.3     1  UNL1        0.1336
     36 C          63.1893   81.9852   13.3996 C.ar    1  UNL1        0.0814
@<TRIPOS>BOND
     1    23    24    1
     2    24    25   ar
     3    25    22    1
     4    22    21    1
     5    21    20    1
     6    20     1    1
     7     1     2    1
     8     2     3    1
     9     3     4    1
    10     4     5    1
    11     5     6    1
    12     6     7    1
    13     7    10    1
    14    10    11   ar
    15    11    12   ar
    16    12    13   ar
    17    13    16    1
    18    16    17    1
    19    16    18    1
    20    16    19    1
    21    13    14   ar
    22    14    15   ar
    23     7     8    1
    24     8     9    1
    25    25    26   ar
    26    26    27   ar
    27    27    28   ar
    28    28    29    1
    29    29    30   ar
    30    30    31   ar
    31    31    32   ar
    32    32    33    2
    33    32    34   ar
    34    34    35    1
    35    34    36   ar
    36    28    24   ar
    37    36    29   ar
    38     9     2    1
    39     8     4    1
    40    15    10   ar
@<TRIPOS>MOLECULE
*****
 36 40 0 0 0
SMALL
GASTEIGER

@<TRIPOS>ATOM
      1 C          64.1904   91.3816   13.5565 C.3     1  UNL1        0.0731
      2 N          63.3837   90.6552   12.5213 N.3     1  UNL1       -0.2712
      3 C          62.3608   91.2678   11.6111 C.3     1  UNL1        0.0738
      4 C          61.8032   90.1799   10.7418 C.3     1  UNL1        0.0372
      5 C          60.8264   89.8861    9.6420 C.3     1  UNL1        0.0245
      6 C          60.9010   88.4197    9.3352 C.3     1  UNL1        0.0909
      7 N          61.9239   87.8072   10.2455 N.pl3   1  UNL1       -0.3077
      8 C          62.4815   88.8950   11.1148 C.3     1  UNL1        0.0901
      9 C          63.4583   89.1888   12.2146 C.3     1  UNL1        0.0921
     10 C          62.3198   86.3607   10.2803 C.ar    1  UNL1        0.0478
     11 C          62.2621   85.5982   11.5707 C.ar    1  UNL1        0.0145
     12 C          62.6579   84.1518   11.6055 C.ar    1  UNL1        0.0051
     13 C          63.1114   83.4679   10.3499 C.ar    1  UNL1        0.0715
     14 C          63.1691   84.2304    9.0594 C.ar    1  UNL1        0.0051
     15 C          62.7733   85.6768    9.0246 C.ar    1  UNL1        0.0145
     16 C          63.5073   82.0215   10.3848 C.3     1  UNL1        0.4186
     17 F          63.9031   80.5751   10.4196 F       1  UNL1       -0.1659
     18 F          62.2342   81.6905   11.1056 F       1  UNL1       -0.1659
     19 F          64.7803   82.3526    9.6639 F       1  UNL1       -0.1659
     20 C          64.3439   90.8010   14.9310 C.3     1  UNL1        0.0294
     21 C          63.1973   90.0763   15.5715 C.3     1  UNL1        0.0666
     22 S          63.4447   89.1562   16.7300 S.3     1  UNL1       -0.0756
     23 C          64.6106   86.8280   14.7628 C.3     1  UNL1        0.1340
     24 N          63.5091   86.6633   15.7675 N.ar    1  UNL1       -0.2884
     25 C          62.9732   87.7334   16.6717 C.ar    1  UNL1        0.1932
     26 N          61.8829   87.1311   17.5075 N.ar    1  UNL1       -0.1221
     27 N          61.7450   85.6886   17.1198 N.ar    1  UNL1       -0.1282
     28 C          62.7500   85.3995   16.0444 C.ar    1  UNL1        0.1683
     29 C          62.9592   84.0785   15.3652 C.ar    1  UNL1        0.0534
     30 C          64.3394   83.6543   14.9589 C.ar    1  UNL1        0.0094
     31 C          64.5486   82.3333   14.2797 C.ar    1  UNL1        0.0609
     32 C          63.3774   81.4366   14.0069 C.ar    1  UNL1        0.2610
     33 O          63.5866   80.1156   13.3277 O.2     1  UNL1       -0.2670
     34 N          61.9972   81.8608   14.4131 N.ar    1  UNL1       -0.2921
     35 C          60.8262   80.9640   14.1402 C.3     1  UNL1        0.1336
     36 C          61.7881   83.1818   15.0923 C.ar    1  UNL1        0.0814
@<TRIPOS>BOND
     1    23    24    1
     2    24    25   ar
     3    25    22    1
     4    22    21    1
     5    21    20    1
     6    20     1    1
     7     1     2    1
     8     2     3    1
     9     3     4    1
    10     4     5    1
    11     5     6    1
    12     6     7    1
    13     7    10    1
    14    10    11   ar
    15    11    12   ar
    16    12    13   ar
    17    13    16    1
    18    16    17    1
    19    16    18    1
    20    16    19    1
    21    13    14   ar
    22    14    15   ar
    23     7     8    1
    24     8     9    1
    25    25    26   ar
    26    26    27   ar
    27    27    28   ar
    28    28    29    1
    29    29    30   ar
    30    30    31   ar
    31    31    32   ar
    32    32    33    2
    33    32    34   ar
    34    34    35    1
    35    34    36   ar
    36    28    24   ar
    37    36    29   ar
    38     9     2    1
    39     8     4    1
    40    15    10   ar
@<TRIPOS>MOLECULE
*****
 36 40 0 0 0
SMALL
GASTEIGER

@<TRIPOS>ATOM
      1 C          64.2934   91.0209   15.1402 C.3     1  UNL1        0.0731
      2 N          63.8835   89.6545   15.6040 N.3     1  UNL1       -0.2712
      3 C          63.3973   89.2988   16.9776 C.3     1  UNL1        0.0738
      4 C          63.1012   87.8284   16.9981 C.3     1  UNL1        0.0372
      5 C          62.6177   86.6998   17.8598 C.3     1  UNL1        0.0245
      6 C          62.6221   85.4493   17.0313 C.3     1  UNL1        0.0909
      7 N          63.1084   85.8051   15.6576 N.pl3   1  UNL1       -0.3077
      8 C          63.4045   87.2755   15.6371 C.3     1  UNL1        0.0901
      9 C          63.8880   88.4041   14.7755 C.3     1  UNL1        0.0921
     10 C          63.2702   84.8570   14.5066 C.ar    1  UNL1        0.0478
     11 C          63.1230   85.3541   13.0990 C.ar    1  UNL1        0.0145
     12 C          63.2848   84.4061   11.9480 C.ar    1  UNL1        0.0051
     13 C          63.5938   82.9608   12.2045 C.ar    1  UNL1        0.0715
     14 C          63.7411   82.4637   13.6120 C.ar    1  UNL1        0.0051
     15 C          63.5793   83.4118   14.7631 C.ar    1  UNL1        0.0145
     16 C          63.7556   82.0127   11.0534 C.3     1  UNL1        0.4186
     17 F          63.9174   81.0646    9.9023 F       1  UNL1       -0.1659
     18 F          62.8982   81.0063   11.7618 F       1  UNL1       -0.1659
     19 F          64.6131   83.0192   10.3450 F       1  UNL1       -0.1659
     20 C          65.1166   91.1749   13.8957 C.3     1  UNL1        0.0294
     21 C          64.4473   91.4633   12.5846 C.3     1  UNL1        0.0666
     22 S          62.9524   91.5622   12.5113 S.3     1  UNL1       -0.0756
     23 C          63.2562   89.9748    9.6763 C.3     1  UNL1        0.1340
     24 N          62.2828   89.6481   10.7698 N.ar    1  UNL1       -0.2884
     25 C          62.1432   90.3777   12.0729 C.ar    1  UNL1        0.1932
     26 N          61.0522   89.7150   12.8607 N.ar    1  UNL1       -0.1221
     27 N          60.5175   88.5758   12.0444 N.ar    1  UNL1       -0.1282
     28 C          61.2781   88.5344   10.7522 C.ar    1  UNL1        0.1683
     29 C          61.0703   87.5518    9.6380 C.ar    1  UNL1        0.0534
     30 C          59.7577   87.5057    8.9136 C.ar    1  UNL1        0.0094
     31 C          59.5500   86.5232    7.7994 C.ar    1  UNL1        0.0609
     32 C          60.6551   85.5867    7.4096 C.ar    1  UNL1        0.2610
     33 O          60.4474   84.6041    6.2954 O.2     1  UNL1       -0.2670
     34 N          61.9678   85.6328    8.1340 N.ar    1  UNL1       -0.2921
     35 C          63.0727   84.6963    7.7441 C.3     1  UNL1        0.1336
     36 C          62.1754   86.6154    9.2482 C.ar    1  UNL1        0.0814
@<TRIPOS>BOND
     1    23    24    1
     2    24    25   ar
     3    25    22    1
     4    22    21    1
     5    21    20    1
     6    20     1    1
     7     1     2    1
     8     2     3    1
     9     3     4    1
    10     4     5    1
    11     5     6    1
    12     6     7    1
    13     7    10    1
    14    10    11   ar
    15    11    12   ar
    16    12    13   ar
    17    13    16    1
    18    16    17    1
    19    16    18    1
    20    16    19    1
    21    13    14   ar
    22    14    15   ar
    23     7     8    1
    24     8     9    1
    25    25    26   ar
    26    26    27   ar
    27    27    28   ar
    28    28    29    1
    29    29    30   ar
    30    30    31   ar
    31    31    32   ar
    32    32    33    2
    33    32    34   ar
    34    34    35    1
    35    34    36   ar
    36    28    24   ar
    37    36    29   ar
    38     9     2    1
    39     8     4    1
    40    15    10   ar
