@<TRIPOS>MOLECULE
*****
 30 33 0 0 0
SMALL
GASTEIGER

@<TRIPOS>ATOM
      1 C          63.9101   89.8037   13.6622 C.ar    1  UNL1        0.1453
      2 C          64.4597   88.8604   14.6907 C.ar    1  UNL1        0.0381
      3 C          64.3139   87.3792   14.5040 C.ar    1  UNL1        0.0114
      4 C          63.6185   86.8414   13.2885 C.ar    1  UNL1        0.0419
      5 C          63.0689   87.7847   12.2600 C.ar    1  UNL1        0.0114
      6 C          63.2147   89.2660   12.4468 C.ar    1  UNL1        0.0381
      7 C          63.4728   85.3603   13.1018 C.1     1  UNL1       -0.0621
      8 C          63.3271   83.8791   12.9152 C.1     1  UNL1       -0.0597
      9 C          62.7999   81.2356   12.4685 C.3     1  UNL1        0.1561
     10 O          63.7004   82.9718   11.2550 O.3     1  UNL1       -0.3739
     11 C          62.3264   81.2120   13.7392 C.3     1  UNL1        0.1120
     12 N          62.0284   81.1488   14.5042 N.3     1  UNL1       -0.2699
     13 C          62.0077   79.9005   13.6729 C.3     1  UNL1        0.0723
     14 C          62.5314   79.9265   12.2676 C.3     1  UNL1        0.0207
     15 C          63.0759   81.2008   11.6936 C.3     1  UNL1        0.0404
     16 C          63.0967   82.4492   12.5248 C.3     1  UNL1        0.0207
     17 C          62.5730   82.4232   13.9302 C.3     1  UNL1        0.0723
     18 H          63.7106   83.7751   11.7986 H       1  UNL1        0.2115
     19 O          64.0559   91.2849   13.8490 O.3     1  UNL1       -0.4535
     20 C          66.3338   93.7205   10.8274 C.ar    1  UNL1        0.0536
     21 C          66.6668   93.8325   12.2857 C.ar    1  UNL1        0.0076
     22 C          65.9075   93.0207   13.2929 C.ar    1  UNL1        0.0376
     23 C          64.8152   92.0967   12.8418 C.ar    1  UNL1        0.1453
     24 C          64.4823   91.9848   11.3835 C.ar    1  UNL1        0.0376
     25 C          65.2415   92.7966   10.3764 C.ar    1  UNL1        0.0076
     26 C          67.1625   96.4456    8.0638 C.3     1  UNL1        0.1109
     27 N          66.4032   95.6336    9.0711 N.am    1  UNL1       -0.2992
     28 C          67.0931   94.5323    9.8202 C.2     1  UNL1        0.2459
     29 O          68.5419   94.2428    9.5621 O.2     1  UNL1       -0.2701
     30 H          65.4522   95.8236    9.2405 H       1  UNL1        0.1498
@<TRIPOS>BOND
     1    26    27    1
     2    27    28   am
     3    28    29    2
     4    28    20    1
     5    20    21   ar
     6    21    22   ar
     7    22    23   ar
     8    23    19    1
     9    19     1    1
    10     1     2   ar
    11     2     3   ar
    12     3     4   ar
    13     4     7    1
    14     7     8    3
    15     8     9    1
    16     9    10    1
    17     9    11    1
    18    11    12    1
    19    12    13    1
    20    13    14    1
    21    14    15    1
    22    15    16    1
    23    16    17    1
    24     4     5   ar
    25     5     6   ar
    26    23    24   ar
    27    24    25   ar
    28    25    20   ar
    29     6     1   ar
    30    15     9    1
    31    17    12    1
    32    27    30    1
    33    10    18    1
@<TRIPOS>MOLECULE
*****
 30 33 0 0 0
SMALL
GASTEIGER

@<TRIPOS>ATOM
      1 C          59.1567   88.7484    7.5672 C.ar    1  UNL1        0.1453
      2 C          59.1272   87.2548    7.4328 C.ar    1  UNL1        0.0381
      3 C          59.9412   86.4019    8.3601 C.ar    1  UNL1        0.0114
      4 C          60.7848   87.0429    9.4221 C.ar    1  UNL1        0.0419
      5 C          60.8143   88.5365    9.5566 C.ar    1  UNL1        0.0114
      6 C          60.0003   89.3893    8.6291 C.ar    1  UNL1        0.0381
      7 C          61.5988   86.1901   10.3495 C.1     1  UNL1       -0.0621
      8 C          62.4130   85.3373   11.2767 C.1     1  UNL1       -0.0597
      9 C          63.6533   83.7412   13.1151 C.3     1  UNL1        0.1561
     10 O          63.1965   85.9881   12.9142 O.3     1  UNL1       -0.3739
     11 C          63.3617   82.7130   12.2800 C.3     1  UNL1        0.1120
     12 N          63.2071   82.0578   11.8059 N.3     1  UNL1       -0.2699
     13 C          63.9402   81.7975   13.0884 C.3     1  UNL1        0.0723
     14 C          64.2628   82.9346   14.0119 C.3     1  UNL1        0.0207
     15 C          63.8523   84.3320   13.6529 C.3     1  UNL1        0.0404
     16 C          63.1192   84.5922   12.3705 C.3     1  UNL1        0.0207
     17 C          62.7967   83.4551   11.4469 C.3     1  UNL1        0.0723
     18 H          62.7227   86.1487   12.0831 H       1  UNL1        0.2115
     19 O          58.3426   89.6012    6.6398 O.3     1  UNL1       -0.4535
     20 C          60.3943   92.2651    3.6491 C.ar    1  UNL1        0.0536
     21 C          58.9177   92.3939    3.8792 C.ar    1  UNL1        0.0076
     22 C          58.2337   91.5059    4.8762 C.ar    1  UNL1        0.0376
     23 C          59.0265   90.4891    5.6429 C.ar    1  UNL1        0.1453
     24 C          60.5031   90.3604    5.4127 C.ar    1  UNL1        0.0376
     25 C          61.1870   91.2484    4.4158 C.ar    1  UNL1        0.0076
     26 C          63.1337   93.6926    1.1574 C.3     1  UNL1        0.1109
     27 N          62.4496   92.8046    2.1543 N.am    1  UNL1       -0.2992
     28 C          61.0782   93.1531    2.6522 C.2     1  UNL1        0.2459
     29 O          60.3909   94.3893    2.1532 O.2     1  UNL1       -0.2701
     30 H          62.9008   91.9932    2.4819 H       1  UNL1        0.1498
@<TRIPOS>BOND
     1    26    27    1
     2    27    28   am
     3    28    29    2
     4    28    20    1
     5    20    21   ar
     6    21    22   ar
     7    22    23   ar
     8    23    19    1
     9    19     1    1
    10     1     2   ar
    11     2     3   ar
    12     3     4   ar
    13     4     7    1
    14     7     8    3
    15     8     9    1
    16     9    10    1
    17     9    11    1
    18    11    12    1
    19    12    13    1
    20    13    14    1
    21    14    15    1
    22    15    16    1
    23    16    17    1
    24     4     5   ar
    25     5     6   ar
    26    23    24   ar
    27    24    25   ar
    28    25    20   ar
    29     6     1   ar
    30    15     9    1
    31    17    12    1
    32    27    30    1
    33    10    18    1
@<TRIPOS>MOLECULE
*****
 30 33 0 0 0
SMALL
GASTEIGER

@<TRIPOS>ATOM
      1 C          64.0162   89.2031   14.8839 C.ar    1  UNL1        0.1453
      2 C          65.3834   89.7712   15.1247 C.ar    1  UNL1        0.0381
      3 C          65.9008   90.8763   14.2524 C.ar    1  UNL1        0.0114
      4 C          65.0508   91.4134   13.1392 C.ar    1  UNL1        0.0419
      5 C          63.6836   90.8453   12.8984 C.ar    1  UNL1        0.0114
      6 C          63.1663   89.7402   13.7708 C.ar    1  UNL1        0.0381
      7 C          65.5682   92.5185   12.2669 C.1     1  UNL1       -0.0621
      8 C          66.0856   93.6236   11.3945 C.1     1  UNL1       -0.0597
      9 C          66.8063   95.7941    9.8995 C.3     1  UNL1        0.1561
     10 O          65.7578   95.4500   11.9194 O.3     1  UNL1       -0.3739
     11 C          67.2993   94.8986    9.0081 C.3     1  UNL1        0.1120
     12 N          67.6126   94.3939    8.4380 N.3     1  UNL1       -0.2699
     13 C          67.7161   95.8641    8.1593 C.3     1  UNL1        0.0723
     14 C          67.1709   96.8545    9.1451 C.3     1  UNL1        0.0207
     15 C          66.5222   96.3746   10.4096 C.3     1  UNL1        0.0404
     16 C          66.4187   94.9044   10.6883 C.3     1  UNL1        0.0207
     17 C          66.9639   93.9140    9.7025 C.3     1  UNL1        0.0723
     18 H          65.6945   94.4977   12.0927 H       1  UNL1        0.2115
     19 O          63.4989   88.0979   15.7563 O.3     1  UNL1       -0.4535
     20 C          63.4481   83.8643   14.2318 C.ar    1  UNL1        0.0536
     21 C          63.0342   84.1582   15.6433 C.ar    1  UNL1        0.0076
     22 C          63.0511   85.5694   16.1515 C.ar    1  UNL1        0.0376
     23 C          63.4820   86.6868   15.2482 C.ar    1  UNL1        0.1453
     24 C          63.8959   86.3928   13.8367 C.ar    1  UNL1        0.0376
     25 C          63.8789   84.9817   13.3285 C.ar    1  UNL1        0.0076
     26 C          62.4727   80.0400   13.8154 C.3     1  UNL1        0.1109
     27 N          62.4897   81.4513   14.3236 N.am    1  UNL1       -0.2992
     28 C          63.4311   82.4531   13.7236 C.2     1  UNL1        0.2459
     29 O          64.3555   82.0438   12.6156 O.2     1  UNL1       -0.2701
     30 H          61.8830   81.7199   15.0509 H       1  UNL1        0.1498
@<TRIPOS>BOND
     1    26    27    1
     2    27    28   am
     3    28    29    2
     4    28    20    1
     5    20    21   ar
     6    21    22   ar
     7    22    23   ar
     8    23    19    1
     9    19     1    1
    10     1     2   ar
    11     2     3   ar
    12     3     4   ar
    13     4     7    1
    14     7     8    3
    15     8     9    1
    16     9    10    1
    17     9    11    1
    18    11    12    1
    19    12    13    1
    20    13    14    1
    21    14    15    1
    22    15    16    1
    23    16    17    1
    24     4     5   ar
    25     5     6   ar
    26    23    24   ar
    27    24    25   ar
    28    25    20   ar
    29     6     1   ar
    30    15     9    1
    31    17    12    1
    32    27    30    1
    33    10    18    1
@<TRIPOS>MOLECULE
*****
 30 33 0 0 0
SMALL
GASTEIGER

@<TRIPOS>ATOM
      1 C          64.0730   89.4621   14.1656 C.ar    1  UNL1        0.1453
      2 C          63.4755   89.0089   12.8665 C.ar    1  UNL1        0.0381
      3 C          63.3045   87.5446   12.5900 C.ar    1  UNL1        0.0114
      4 C          63.7309   86.5334   13.6126 C.ar    1  UNL1        0.0419
      5 C          64.3284   86.9866   14.9117 C.ar    1  UNL1        0.0114
      6 C          64.4995   88.4510   15.1882 C.ar    1  UNL1        0.0381
      7 C          63.5599   85.0691   13.3361 C.1     1  UNL1       -0.0621
      8 C          63.3889   83.6048   13.0594 C.1     1  UNL1       -0.0597
      9 C          62.8561   80.9440   12.7397 C.3     1  UNL1        0.1561
     10 O          62.9785   82.4061   14.5132 O.3     1  UNL1       -0.3739
     11 C          63.0439   81.1618   11.4142 C.3     1  UNL1        0.1120
     12 N          63.1483   81.2452   10.6018 N.3     1  UNL1       -0.2699
     13 C          62.8030   79.8711   11.0945 C.3     1  UNL1        0.0723
     14 C          62.5954   79.6302   12.5603 C.3     1  UNL1        0.0207
     15 C          62.7330   80.7634   13.5335 C.3     1  UNL1        0.0404
     16 C          63.0783   82.1374   13.0408 C.3     1  UNL1        0.0207
     17 C          63.2859   82.3783   11.5749 C.3     1  UNL1        0.0723
     18 H          63.2020   83.2919   14.1872 H       1  UNL1        0.2115
     19 O          64.2441   90.9265   14.4421 O.3     1  UNL1       -0.4535
     20 C          65.8962   93.6400   11.2551 C.ar    1  UNL1        0.0536
     21 C          64.8217   92.6505   10.9144 C.ar    1  UNL1        0.0076
     22 C          64.2709   91.7459   11.9767 C.ar    1  UNL1        0.0376
     23 C          64.7948   91.8310   13.3798 C.ar    1  UNL1        0.1453
     24 C          65.8693   92.8206   13.7204 C.ar    1  UNL1        0.0376
     25 C          66.4200   93.7251   12.6581 C.ar    1  UNL1        0.0076
     26 C          67.8524   94.8851    8.0343 C.3     1  UNL1        0.1109
     27 N          67.3016   93.9806    9.0967 N.am    1  UNL1       -0.2992
     28 C          66.4470   94.5446   10.1928 C.2     1  UNL1        0.2459
     29 O          66.1432   96.0130   10.2266 O.2     1  UNL1       -0.2701
     30 H          67.5010   93.0167    9.0745 H       1  UNL1        0.1498
@<TRIPOS>BOND
     1    26    27    1
     2    27    28   am
     3    28    29    2
     4    28    20    1
     5    20    21   ar
     6    21    22   ar
     7    22    23   ar
     8    23    19    1
     9    19     1    1
    10     1     2   ar
    11     2     3   ar
    12     3     4   ar
    13     4     7    1
    14     7     8    3
    15     8     9    1
    16     9    10    1
    17     9    11    1
    18    11    12    1
    19    12    13    1
    20    13    14    1
    21    14    15    1
    22    15    16    1
    23    16    17    1
    24     4     5   ar
    25     5     6   ar
    26    23    24   ar
    27    24    25   ar
    28    25    20   ar
    29     6     1   ar
    30    15     9    1
    31    17    12    1
    32    27    30    1
    33    10    18    1
