@<TRIPOS>MOLECULE
*****
 29 32 0 0 0
SMALL
GASTEIGER

@<TRIPOS>ATOM
      1 C          64.3236   90.9106   12.5572 C.ar    1  UNL1        0.0515
      2 C          64.9247   90.3828   13.8261 C.ar    1  UNL1        0.0160
      3 C          64.6199   88.9846   14.2754 C.ar    1  UNL1        0.0174
      4 C          63.7140   88.1141   13.4559 C.ar    1  UNL1        0.0712
      5 C          63.1130   88.6419   12.1870 C.ar    1  UNL1        0.0729
      6 CL         62.2071   87.7713   11.3674 Cl      1  UNL1       -0.0809
      7 C          63.4178   90.0401   11.7377 C.ar    1  UNL1        0.0273
      8 N          63.4093   86.7158   13.9052 N.am    1  UNL1       -0.2073
      9 C          63.2402   86.2632   15.3253 C.2     1  UNL1        0.2356
     10 O          63.3462   87.1293   16.5453 O.2     1  UNL1       -0.2741
     11 C          62.9465   84.7923   15.3111 C.3     1  UNL1        0.0946
     12 C          62.9340   84.3358   13.8823 C.3     1  UNL1        0.0784
     13 C          62.9534   84.0280   12.4143 C.3     1  UNL1        0.0091
     14 C          62.6995   82.6285   11.9381 C.3     1  UNL1        0.0005
     15 C          62.4262   81.5368   12.9297 C.3     1  UNL1        0.0000
     16 C          62.4067   81.8446   14.3977 C.3     1  UNL1        0.0005
     17 C          62.6606   83.2441   14.8739 C.3     1  UNL1        0.0091
     18 C          63.2200   85.5246   13.0134 C.2     1  UNL1        0.2347
     19 O          63.3023   85.5226   11.5156 O.2     1  UNL1       -0.2741
     20 O          67.0822   91.6145   11.6115 O.2     1  UNL1       -0.2682
     21 C          66.0078   92.6608   11.6349 C.2     1  UNL1        0.2672
     22 N          64.6284   92.3089   12.1078 N.am    1  UNL1       -0.2791
     23 H          63.9232   92.9956   12.1232 H       1  UNL1        0.1552
     24 C          66.3125   94.0591   11.1856 C.ar    1  UNL1        0.1348
     25 C          66.9853   94.2928    9.8656 C.ar    1  UNL1        0.0238
     26 C          67.2901   95.6910    9.4162 C.ar    1  UNL1        0.0033
     27 C          66.9221   96.8557   10.2869 C.ar    1  UNL1        0.0207
     28 C          66.2493   96.6220   11.6070 C.ar    1  UNL1        0.0990
     29 N          65.9445   95.2238   12.0564 N.ar    1  UNL1       -0.2392
@<TRIPOS>BOND
     1    20    21    2
     2    21    22   am
     3    22     1    1
     4     1     2   ar
     5     2     3   ar
     6     3     4   ar
     7     4     8    1
     8     8     9   am
     9     9    10    2
    10     9    11    1
    11    11    12    1
    12    12    13    1
    13    13    14    1
    14    14    15    1
    15    15    16    1
    16    16    17    1
    17    12    18    1
    18    18    19    2
    19     4     5   ar
    20     5     6    1
    21     5     7   ar
    22    21    24    1
    23    24    25   ar
    24    25    26   ar
    25    26    27   ar
    26    27    28   ar
    27    28    29   ar
    28     7     1   ar
    29    29    24   ar
    30    18     8   am
    31    17    12    1
    32    22    23    1
@<TRIPOS>MOLECULE
*****
 29 32 0 0 0
SMALL
GASTEIGER

@<TRIPOS>ATOM
      1 C          63.7439   89.4884   12.4659 C.ar    1  UNL1        0.0515
      2 C          62.8549   88.6611   11.5853 C.ar    1  UNL1        0.0160
      3 C          62.5612   87.2346   11.9443 C.ar    1  UNL1        0.0174
      4 C          63.1567   86.6354   13.1837 C.ar    1  UNL1        0.0712
      5 C          64.0457   87.4625   14.0642 C.ar    1  UNL1        0.0729
      6 CL         64.6412   86.8632   15.3037 Cl      1  UNL1       -0.0809
      7 C          64.3393   88.8890   13.7052 C.ar    1  UNL1        0.0273
      8 N          62.8631   85.2089   13.5427 N.am    1  UNL1       -0.2073
      9 C          62.3805   84.7162   14.8748 C.2     1  UNL1        0.2356
     10 O          62.1067   85.5637   16.0818 O.2     1  UNL1       -0.2741
     11 C          62.2196   83.2274   14.7880 C.3     1  UNL1        0.0946
     12 C          62.6029   82.7998   13.4022 C.3     1  UNL1        0.0784
     13 C          63.0147   82.5237   11.9865 C.3     1  UNL1        0.0091
     14 C          63.0025   81.1183   11.4624 C.3     1  UNL1        0.0005
     15 C          62.5784   79.9890   12.3540 C.3     1  UNL1        0.0000
     16 C          62.1665   80.2652   13.7696 C.3     1  UNL1        0.0005
     17 C          62.1788   81.6705   14.2937 C.3     1  UNL1        0.0091
     18 C          63.0006   84.0244   12.6326 C.2     1  UNL1        0.2347
     19 O          63.4558   84.0586   11.2037 O.2     1  UNL1       -0.2741
     20 O          66.1602   90.8546   13.6037 O.2     1  UNL1       -0.2682
     21 C          65.2457   91.5980   12.6758 C.2     1  UNL1        0.2672
     22 N          64.0375   90.9148   12.1069 N.am    1  UNL1       -0.2791
     23 H          63.4373   91.4028   11.4979 H       1  UNL1        0.1552
     24 C          65.5393   93.0245   12.3169 C.ar    1  UNL1        0.1348
     25 C          65.2911   93.5128   10.9206 C.ar    1  UNL1        0.0238
     26 C          65.5847   94.9393   10.5616 C.ar    1  UNL1        0.0033
     27 C          66.1266   95.8776   11.5990 C.ar    1  UNL1        0.0207
     28 C          66.3748   95.3892   12.9954 C.ar    1  UNL1        0.0990
     29 N          66.0812   93.9627   13.3544 N.ar    1  UNL1       -0.2392
@<TRIPOS>BOND
     1    20    21    2
     2    21    22   am
     3    22     1    1
     4     1     2   ar
     5     2     3   ar
     6     3     4   ar
     7     4     8    1
     8     8     9   am
     9     9    10    2
    10     9    11    1
    11    11    12    1
    12    12    13    1
    13    13    14    1
    14    14    15    1
    15    15    16    1
    16    16    17    1
    17    12    18    1
    18    18    19    2
    19     4     5   ar
    20     5     6    1
    21     5     7   ar
    22    21    24    1
    23    24    25   ar
    24    25    26   ar
    25    26    27   ar
    26    27    28   ar
    27    28    29   ar
    28     7     1   ar
    29    29    24   ar
    30    18     8   am
    31    17    12    1
    32    22    23    1
@<TRIPOS>MOLECULE
*****
 29 32 0 0 0
SMALL
GASTEIGER

@<TRIPOS>ATOM
      1 C          71.6523   77.1050   11.9167 C.ar    1  UNL1        0.0515
      2 C          72.6696   76.0370   11.6436 C.ar    1  UNL1        0.0160
      3 C          72.8254   74.8885   12.5957 C.ar    1  UNL1        0.0174
      4 C          71.9639   74.8080   13.8210 C.ar    1  UNL1        0.0712
      5 C          70.9467   75.8759   14.0941 C.ar    1  UNL1        0.0729
      6 CL         70.0852   75.7954   15.3195 Cl      1  UNL1       -0.0809
      7 C          70.7909   77.0244   13.1419 C.ar    1  UNL1        0.0273
      8 N          72.1197   73.6595   14.7732 N.am    1  UNL1       -0.2073
      9 C          72.7110   73.7296   16.1500 C.2     1  UNL1        0.2356
     10 O          73.2503   74.9605   16.8163 O.2     1  UNL1       -0.2741
     11 C          72.6683   72.3527   16.7435 C.3     1  UNL1        0.0946
     12 C          72.0506   71.4315   15.7335 C.3     1  UNL1        0.0784
     13 C          71.4200   70.6355   14.6296 C.3     1  UNL1        0.0091
     14 C          71.1830   69.1650   14.8063 C.3     1  UNL1        0.0005
     15 C          71.5765   68.4904   16.0870 C.3     1  UNL1        0.0000
     16 C          72.2071   69.2864   17.1909 C.3     1  UNL1        0.0005
     17 C          72.4441   70.7570   17.0142 C.3     1  UNL1        0.0091
     18 C          71.7115   72.2392   14.5158 C.2     1  UNL1        0.2347
     19 O          71.0759   71.7181   13.2611 O.2     1  UNL1       -0.2741
     20 O          73.5989   79.3866   11.9872 O.2     1  UNL1       -0.2682
     21 C          72.4699   79.3943   10.9997 C.2     1  UNL1        0.2672
     22 N          71.4966   78.2535   10.9645 N.am    1  UNL1       -0.2791
     23 H          70.7555   78.2585   10.3164 H       1  UNL1        0.1552
     24 C          72.3141   80.5428   10.0476 C.ar    1  UNL1        0.1348
     25 C          72.1312   80.2823    8.5818 C.ar    1  UNL1        0.0238
     26 C          71.9754   81.4308    7.6296 C.ar    1  UNL1        0.0033
     27 C          72.0025   82.8399    8.1432 C.ar    1  UNL1        0.0207
     28 C          72.1854   83.1004    9.6090 C.ar    1  UNL1        0.0990
     29 N          72.3412   81.9519   10.5612 N.ar    1  UNL1       -0.2392
@<TRIPOS>BOND
     1    20    21    2
     2    21    22   am
     3    22     1    1
     4     1     2   ar
     5     2     3   ar
     6     3     4   ar
     7     4     8    1
     8     8     9   am
     9     9    10    2
    10     9    11    1
    11    11    12    1
    12    12    13    1
    13    13    14    1
    14    14    15    1
    15    15    16    1
    16    16    17    1
    17    12    18    1
    18    18    19    2
    19     4     5   ar
    20     5     6    1
    21     5     7   ar
    22    21    24    1
    23    24    25   ar
    24    25    26   ar
    25    26    27   ar
    26    27    28   ar
    27    28    29   ar
    28     7     1   ar
    29    29    24   ar
    30    18     8   am
    31    17    12    1
    32    22    23    1
@<TRIPOS>MOLECULE
*****
 29 32 0 0 0
SMALL
GASTEIGER

@<TRIPOS>ATOM
      1 C          61.0340   88.2715    9.2559 C.ar    1  UNL1        0.0515
      2 C          60.7073   88.3593   10.7173 C.ar    1  UNL1        0.0160
      3 C          61.2420   87.3300   11.6685 C.ar    1  UNL1        0.0174
      4 C          62.1033   86.2130   11.1582 C.ar    1  UNL1        0.0712
      5 C          62.4299   86.1253    9.6969 C.ar    1  UNL1        0.0729
      6 CL         63.2913   85.0082    9.1867 Cl      1  UNL1       -0.0809
      7 C          61.8953   87.1545    8.7458 C.ar    1  UNL1        0.0273
      8 N          62.6380   85.1837   12.1093 N.am    1  UNL1       -0.2073
      9 C          63.4189   85.4601   13.3599 C.2     1  UNL1        0.2356
     10 O          63.8022   86.8141   13.8788 O.2     1  UNL1       -0.2741
     11 C          63.7492   84.1445   14.0004 C.3     1  UNL1        0.0946
     12 C          63.1724   83.0550   13.1457 C.3     1  UNL1        0.0784
     13 C          62.5429   82.0792   12.1963 C.3     1  UNL1        0.0091
     14 C          62.6365   80.6062   12.4634 C.3     1  UNL1        0.0005
     15 C          63.3595   80.1090   13.6799 C.3     1  UNL1        0.0000
     16 C          63.9890   81.0848   14.6294 C.3     1  UNL1        0.0005
     17 C          63.8955   82.5578   14.3622 C.3     1  UNL1        0.0091
     18 C          62.4857   83.6973   11.9770 C.2     1  UNL1        0.2347
     19 O          61.7719   82.9793   10.8702 O.2     1  UNL1       -0.2741
     20 O          59.0961   87.4689    7.1112 O.2     1  UNL1       -0.2682
     21 C          59.5303   88.8995    7.2324 C.2     1  UNL1        0.2672
     22 N          60.4993   89.3008    8.3048 N.am    1  UNL1       -0.2791
     23 H          60.7843   90.2398    8.3844 H       1  UNL1        0.1552
     24 C          58.9957   89.9288    6.2812 C.ar    1  UNL1        0.1348
     25 C          59.9416   90.8035    5.5134 C.ar    1  UNL1        0.0238
     26 C          59.4070   91.8328    4.5622 C.ar    1  UNL1        0.0033
     27 C          57.9262   91.9874    4.3789 C.ar    1  UNL1        0.0207
     28 C          56.9802   91.1125    5.1469 C.ar    1  UNL1        0.0990
     29 N          57.5149   90.0833    6.0980 N.ar    1  UNL1       -0.2392
@<TRIPOS>BOND
     1    20    21    2
     2    21    22   am
     3    22     1    1
     4     1     2   ar
     5     2     3   ar
     6     3     4   ar
     7     4     8    1
     8     8     9   am
     9     9    10    2
    10     9    11    1
    11    11    12    1
    12    12    13    1
    13    13    14    1
    14    14    15    1
    15    15    16    1
    16    16    17    1
    17    12    18    1
    18    18    19    2
    19     4     5   ar
    20     5     6    1
    21     5     7   ar
    22    21    24    1
    23    24    25   ar
    24    25    26   ar
    25    26    27   ar
    26    27    28   ar
    27    28    29   ar
    28     7     1   ar
    29    29    24   ar
    30    18     8   am
    31    17    12    1
    32    22    23    1
@<TRIPOS>MOLECULE
*****
 29 32 0 0 0
SMALL
GASTEIGER

@<TRIPOS>ATOM
      1 C          63.1777   86.9285   13.0988 C.ar    1  UNL1        0.0515
      2 C          64.1586   87.3437   14.1550 C.ar    1  UNL1        0.0160
      3 C          64.7098   88.7387   14.1597 C.ar    1  UNL1        0.0174
      4 C          64.2803   89.7185   13.1083 C.ar    1  UNL1        0.0712
      5 C          63.2995   89.3032   12.0521 C.ar    1  UNL1        0.0729
      6 CL         62.8700   90.2831   11.0006 Cl      1  UNL1       -0.0809
      7 C          62.7482   87.9082   12.0474 C.ar    1  UNL1        0.0273
      8 N          64.8315   91.1135   13.1130 N.am    1  UNL1       -0.2073
      9 C          65.2010   91.9114   14.3283 C.2     1  UNL1        0.2356
     10 O          65.0840   91.4544   15.7521 O.2     1  UNL1       -0.2741
     11 C          65.7079   93.2466   13.8697 C.3     1  UNL1        0.0946
     12 C          65.6518   93.2739   12.3710 C.3     1  UNL1        0.0784
     13 C          65.5384   93.1552   10.8800 C.3     1  UNL1        0.0091
     14 C          65.9514   94.2999   10.0030 C.3     1  UNL1        0.0005
     15 C          66.4778   95.5632   10.6169 C.3     1  UNL1        0.0000
     16 C          66.5913   95.6819   12.1079 C.3     1  UNL1        0.0005
     17 C          66.1783   94.5372   12.9849 C.3     1  UNL1        0.0091
     18 C          65.1102   91.9556   11.9033 C.2     1  UNL1        0.2347
     19 O          64.8864   91.5505   10.4765 O.2     1  UNL1       -0.2741
     20 O          64.9902   84.5976   13.6294 O.2     1  UNL1       -0.2682
     21 C          63.5327   84.3680   13.3593 C.2     1  UNL1        0.2672
     22 N          62.6265   85.5335   13.0940 N.am    1  UNL1       -0.2791
     23 H          61.6699   85.3828   12.9167 H       1  UNL1        0.1552
     24 C          62.9815   82.9730   13.3546 C.ar    1  UNL1        0.1348
     25 C          63.4121   82.0000   12.2974 C.ar    1  UNL1        0.0238
     26 C          62.8608   80.6050   12.2926 C.ar    1  UNL1        0.0033
     27 C          61.8789   80.1829   13.3451 C.ar    1  UNL1        0.0207
     28 C          61.4482   81.1559   14.4024 C.ar    1  UNL1        0.0990
     29 N          61.9995   82.5509   14.4071 N.ar    1  UNL1       -0.2392
@<TRIPOS>BOND
     1    20    21    2
     2    21    22   am
     3    22     1    1
     4     1     2   ar
     5     2     3   ar
     6     3     4   ar
     7     4     8    1
     8     8     9   am
     9     9    10    2
    10     9    11    1
    11    11    12    1
    12    12    13    1
    13    13    14    1
    14    14    15    1
    15    15    16    1
    16    16    17    1
    17    12    18    1
    18    18    19    2
    19     4     5   ar
    20     5     6    1
    21     5     7   ar
    22    21    24    1
    23    24    25   ar
    24    25    26   ar
    25    26    27   ar
    26    27    28   ar
    27    28    29   ar
    28     7     1   ar
    29    29    24   ar
    30    18     8   am
    31    17    12    1
    32    22    23    1
@<TRIPOS>MOLECULE
*****
 29 32 0 0 0
SMALL
GASTEIGER

@<TRIPOS>ATOM
      1 C          62.8556   89.7351   11.1118 C.ar    1  UNL1        0.0515
      2 C          63.4494   91.0836   10.8304 C.ar    1  UNL1        0.0160
      3 C          64.3516   91.7310   11.8387 C.ar    1  UNL1        0.0174
      4 C          64.6601   91.0300   13.1285 C.ar    1  UNL1        0.0712
      5 C          64.0664   89.6816   13.4098 C.ar    1  UNL1        0.0729
      6 CL         64.3750   88.9806   14.6997 Cl      1  UNL1       -0.0809
      7 C          63.1641   89.0342   12.4015 C.ar    1  UNL1        0.0273
      8 N          65.5624   91.6774   14.1368 N.am    1  UNL1       -0.2073
      9 C          65.1687   92.1252   15.5133 C.2     1  UNL1        0.2356
     10 O          63.8037   92.0040   16.1230 O.2     1  UNL1       -0.2741
     11 C          66.3798   92.7153   16.1728 C.3     1  UNL1        0.0946
     12 C          67.5220   92.6323   15.2041 C.3     1  UNL1        0.0784
     13 C          68.5636   92.4821   14.1352 C.3     1  UNL1        0.0091
     14 C          69.9649   92.9571   14.3816 C.3     1  UNL1        0.0005
     15 C          70.3246   93.5823   15.6967 C.3     1  UNL1        0.0000
     16 C          69.2830   93.7325   16.7656 C.3     1  UNL1        0.0005
     17 C          67.8817   93.2575   16.5192 C.3     1  UNL1        0.0091
     18 C          67.0169   91.9909   13.9457 C.2     1  UNL1        0.2347
     19 O          67.8243   91.7119   12.7128 O.2     1  UNL1       -0.2741
     20 O          62.7720   86.7457   10.8747 O.2     1  UNL1       -0.2682
     21 C          61.9116   87.5929    9.9849 C.2     1  UNL1        0.2672
     22 N          61.9533   89.0877   10.1035 N.am    1  UNL1       -0.2791
     23 H          61.3886   89.6438    9.5195 H       1  UNL1        0.1552
     24 C          61.0093   86.9455    8.9766 C.ar    1  UNL1        0.1348
     25 C          61.5089   85.7970    8.1514 C.ar    1  UNL1        0.0238
     26 C          60.6066   85.1495    7.1431 C.ar    1  UNL1        0.0033
     27 C          59.2047   85.6506    6.9600 C.ar    1  UNL1        0.0207
     28 C          58.7051   86.7992    7.7853 C.ar    1  UNL1        0.0990
     29 N          59.6073   87.4466    8.7936 N.ar    1  UNL1       -0.2392
@<TRIPOS>BOND
     1    20    21    2
     2    21    22   am
     3    22     1    1
     4     1     2   ar
     5     2     3   ar
     6     3     4   ar
     7     4     8    1
     8     8     9   am
     9     9    10    2
    10     9    11    1
    11    11    12    1
    12    12    13    1
    13    13    14    1
    14    14    15    1
    15    15    16    1
    16    16    17    1
    17    12    18    1
    18    18    19    2
    19     4     5   ar
    20     5     6    1
    21     5     7   ar
    22    21    24    1
    23    24    25   ar
    24    25    26   ar
    25    26    27   ar
    26    27    28   ar
    27    28    29   ar
    28     7     1   ar
    29    29    24   ar
    30    18     8   am
    31    17    12    1
    32    22    23    1
@<TRIPOS>MOLECULE
*****
 29 32 0 0 0
SMALL
GASTEIGER

@<TRIPOS>ATOM
      1 C          64.5508   90.6454   13.4297 C.ar    1  UNL1        0.0515
      2 C          63.8483   91.4839   12.4033 C.ar    1  UNL1        0.0160
      3 C          62.8548   90.8539   11.4727 C.ar    1  UNL1        0.0174
      4 C          62.5637   89.3855   11.5686 C.ar    1  UNL1        0.0712
      5 C          63.2661   88.5472   12.5950 C.ar    1  UNL1        0.0729
      6 CL         62.9750   87.0788   12.6908 Cl      1  UNL1       -0.0809
      7 C          64.2597   89.1772   13.5256 C.ar    1  UNL1        0.0273
      8 N          61.5702   88.7556   10.6380 N.am    1  UNL1       -0.2073
      9 C          60.1253   89.1352   10.5023 C.2     1  UNL1        0.2356
     10 O          59.4204   90.2115   11.2734 O.2     1  UNL1       -0.2741
     11 C          59.5092   88.2497    9.4601 C.3     1  UNL1        0.0946
     12 C          60.5733   87.3226    8.9516 C.3     1  UNL1        0.0784
     13 C          61.7353   86.4666    8.5432 C.3     1  UNL1        0.0091
     14 C          61.5569   85.4121    7.4914 C.3     1  UNL1        0.0005
     15 C          60.2165   85.2137    6.8481 C.3     1  UNL1        0.0000
     16 C          59.0544   86.0697    7.2565 C.3     1  UNL1        0.0005
     17 C          59.2328   87.1242    8.3083 C.3     1  UNL1        0.0091
     18 C          61.8470   87.6353    9.6795 C.2     1  UNL1        0.2347
     19 O          63.1660   86.9484    9.4835 O.2     1  UNL1       -0.2741
     20 O          66.8642   92.2024   12.3236 O.2     1  UNL1       -0.2682
     21 C          66.7011   92.0539   13.8073 C.2     1  UNL1        0.2672
     22 N          65.5443   91.2754   14.3603 N.am    1  UNL1       -0.2791
     23 H          65.4372   91.1779   15.3341 H       1  UNL1        0.1552
     24 C          67.6946   92.6838   14.7378 C.ar    1  UNL1        0.1348
     25 C          68.5911   91.8199   15.5744 C.ar    1  UNL1        0.0238
     26 C          69.5846   92.4499   16.5050 C.ar    1  UNL1        0.0033
     27 C          69.6817   93.9438   16.5991 C.ar    1  UNL1        0.0207
     28 C          68.7852   94.8078   15.7625 C.ar    1  UNL1        0.0990
     29 N          67.7917   94.1778   14.8319 N.ar    1  UNL1       -0.2392
@<TRIPOS>BOND
     1    20    21    2
     2    21    22   am
     3    22     1    1
     4     1     2   ar
     5     2     3   ar
     6     3     4   ar
     7     4     8    1
     8     8     9   am
     9     9    10    2
    10     9    11    1
    11    11    12    1
    12    12    13    1
    13    13    14    1
    14    14    15    1
    15    15    16    1
    16    16    17    1
    17    12    18    1
    18    18    19    2
    19     4     5   ar
    20     5     6    1
    21     5     7   ar
    22    21    24    1
    23    24    25   ar
    24    25    26   ar
    25    26    27   ar
    26    27    28   ar
    27    28    29   ar
    28     7     1   ar
    29    29    24   ar
    30    18     8   am
    31    17    12    1
    32    22    23    1
