@<TRIPOS>MOLECULE
*****
 33 36 0 0 0
SMALL
GASTEIGER

@<TRIPOS>ATOM
      1 C          57.8262   94.6736   -1.3977 C.3     1  UNL1        0.0954
      2 C          58.5577   95.6474   -0.5222 C.3     1  UNL1        0.0371
      3 C          59.9074   95.2938    0.0284 C.3     1  UNL1        0.0841
      4 N          60.6389   96.2677    0.9039 N.3     1  UNL1       -0.3199
      5 C          60.5257   93.9664   -0.2964 C.3     1  UNL1        0.1540
      6 O          59.7942   92.9925   -1.1719 O.3     1  UNL1       -0.3432
      7 C          58.4445   93.3461   -1.7225 C.3     1  UNL1        0.2247
      8 H          60.0763   97.1107    1.0188 H       1  UNL1        0.1189
      9 H          61.5305   96.5103    0.4718 H       1  UNL1        0.1189
     10 N          52.3225   96.1155   -3.6429 N.ar    1  UNL1       -0.1303
     11 C          52.6168   95.6923   -2.2343 C.ar    1  UNL1        0.1195
     12 C          54.0911   95.4382   -2.1250 C.ar    1  UNL1        0.0312
     13 C          54.7080   95.7044   -3.4662 C.ar    1  UNL1        0.0954
     14 N          53.6149   96.1229   -4.4042 N.ar    1  UNL1       -0.1519
     15 C          56.1822   95.4503   -3.3569 C.3     1  UNL1        0.1205
     16 N          56.4765   95.0272   -1.9483 N.3     1  UNL1       -0.2625
     17 C          55.1842   95.0197   -1.1869 C.3     1  UNL1        0.1024
     18 C          49.6230   96.8227   -4.7442 C.3     1  UNL1        0.2042
     19 S          50.9727   96.4691   -4.1935 S.O2    1  UNL1        0.0828
     20 O          51.5169   96.3743   -5.5882 O.2     1  UNL1       -0.1508
     21 O          50.4286   96.5638   -2.7989 O.2     1  UNL1       -0.1508
     22 C          61.8754   93.6127    0.2542 C.ar    1  UNL1        0.0355
     23 C          61.9847   92.7364    1.4666 C.ar    1  UNL1        0.0300
     24 C          63.3345   92.3828    2.0173 C.ar    1  UNL1        0.1400
     25 F          63.4437   91.5065    3.2298 F       1  UNL1       -0.2042
     26 C          64.5749   92.9055    1.3554 C.ar    1  UNL1        0.0319
     27 C          64.4656   93.7818    0.1430 C.ar    1  UNL1        0.0317
     28 C          63.1159   94.1354   -0.4076 C.ar    1  UNL1        0.1386
     29 F          63.0066   95.0118   -1.6202 F       1  UNL1       -0.2044
     30 C          57.7130   92.3722   -2.5981 C.3     1  UNL1        0.4234
     31 F          56.9815   91.3983   -3.4735 F       1  UNL1       -0.1674
     32 F          58.5412   92.8051   -3.7715 F       1  UNL1       -0.1674
     33 F          56.8849   91.9394   -1.4247 F       1  UNL1       -0.1674
@<TRIPOS>BOND
     1    18    19    1
     2    19    20    2
     3    19    21    2
     4    19    10    1
     5    10    11   ar
     6    11    12   ar
     7    12    13   ar
     8    13    14   ar
     9    13    15    1
    10    15    16    1
    11     1    16    1
    12     1     2    1
    13     2     3    1
    14     3     4    1
    15     3     5    1
    16     5    22    1
    17    22    23   ar
    18    23    24   ar
    19    24    25    1
    20    24    26   ar
    21    26    27   ar
    22    27    28   ar
    23    28    29    1
    24     5     6    1
    25     6     7    1
    26     7    30    1
    27    30    31    1
    28    30    32    1
    29    30    33    1
    30    16    17    1
    31    14    10   ar
    32     7     1    1
    33    17    12    1
    34    28    22   ar
    35     4     8    1
    36     4     9    1
@<TRIPOS>MOLECULE
*****
 33 36 0 0 0
SMALL
GASTEIGER

@<TRIPOS>ATOM
      1 C          57.4466   94.6078   -1.4580 C.3     1  UNL1        0.0954
      2 C          58.1032   95.5856   -0.5292 C.3     1  UNL1        0.0371
      3 C          59.3821   95.2191    0.1637 C.3     1  UNL1        0.0841
      4 N          60.0387   96.1970    1.0926 N.3     1  UNL1       -0.3199
      5 C          60.0044   93.8749   -0.0722 C.3     1  UNL1        0.1540
      6 O          59.3478   92.8971   -1.0011 O.3     1  UNL1       -0.3432
      7 C          58.0689   93.2635   -1.6939 C.3     1  UNL1        0.2247
      8 H          59.4838   97.0518    1.1339 H       1  UNL1        0.1189
      9 H          60.9745   96.4153    0.7503 H       1  UNL1        0.1189
     10 N          52.2316   96.1020   -4.2834 N.ar    1  UNL1       -0.1303
     11 C          53.5934   96.0593   -4.9108 C.ar    1  UNL1        0.1195
     12 C          54.5767   95.6448   -3.8566 C.ar    1  UNL1        0.0312
     13 C          53.8226   95.4313   -2.5776 C.ar    1  UNL1        0.0954
     14 N          52.3733   95.7139   -2.8414 N.ar    1  UNL1       -0.1519
     15 C          54.8060   95.0169   -1.5234 C.3     1  UNL1        0.1205
     16 N          56.1677   94.9742   -2.1509 N.3     1  UNL1       -0.2625
     17 C          56.0261   95.3623   -3.5928 C.3     1  UNL1        0.1024
     18 C          49.6738   96.8349   -5.6691 C.3     1  UNL1        0.2042
     19 S          50.9527   96.4684   -4.9762 S.O2    1  UNL1        0.0828
     20 O          50.3056   96.7230   -3.6472 O.2     1  UNL1       -0.1508
     21 O          51.5998   96.2138   -6.3053 O.2     1  UNL1       -0.1508
     22 C          61.2834   93.5084    0.6206 C.ar    1  UNL1        0.0355
     23 C          62.6016   93.8304   -0.0185 C.ar    1  UNL1        0.0300
     24 C          63.8805   93.4640    0.6743 C.ar    1  UNL1        0.1400
     25 F          65.1987   93.7860    0.0351 F       1  UNL1       -0.2042
     26 C          63.8412   92.7755    2.0064 C.ar    1  UNL1        0.0319
     27 C          62.5230   92.4536    2.6456 C.ar    1  UNL1        0.0317
     28 C          61.2441   92.8200    1.9527 C.ar    1  UNL1        0.1386
     29 F          59.9258   92.4980    2.5920 F       1  UNL1       -0.2044
     30 C          57.4123   92.2857   -2.6228 C.3     1  UNL1        0.4234
     31 F          56.7558   91.3078   -3.5517 F       1  UNL1       -0.1674
     32 F          56.4773   91.8712   -1.5255 F       1  UNL1       -0.1674
     33 F          58.3473   92.7001   -3.7200 F       1  UNL1       -0.1674
@<TRIPOS>BOND
     1    18    19    1
     2    19    20    2
     3    19    21    2
     4    19    10    1
     5    10    11   ar
     6    11    12   ar
     7    12    13   ar
     8    13    14   ar
     9    13    15    1
    10    15    16    1
    11     1    16    1
    12     1     2    1
    13     2     3    1
    14     3     4    1
    15     3     5    1
    16     5    22    1
    17    22    23   ar
    18    23    24   ar
    19    24    25    1
    20    24    26   ar
    21    26    27   ar
    22    27    28   ar
    23    28    29    1
    24     5     6    1
    25     6     7    1
    26     7    30    1
    27    30    31    1
    28    30    32    1
    29    30    33    1
    30    16    17    1
    31    14    10   ar
    32     7     1    1
    33    17    12    1
    34    28    22   ar
    35     4     8    1
    36     4     9    1
@<TRIPOS>MOLECULE
*****
 33 36 0 0 0
SMALL
GASTEIGER

@<TRIPOS>ATOM
      1 C          62.5274   93.6611   -0.2779 C.3     1  UNL1        0.0954
      2 C          61.0644   93.3444   -0.3746 C.3     1  UNL1        0.0371
      3 C          60.3300   92.8194    0.8233 C.3     1  UNL1        0.0841
      4 N          58.8669   92.5026    0.7266 N.3     1  UNL1       -0.3199
      5 C          61.0585   92.6110    2.1178 C.3     1  UNL1        0.1540
      6 O          62.5214   92.9277    2.2144 O.3     1  UNL1       -0.3432
      7 C          63.2559   93.4528    1.0166 C.3     1  UNL1        0.2247
      8 H          58.5375   92.7024   -0.2179 H       1  UNL1        0.1189
      9 H          58.3504   93.0745    1.3949 H       1  UNL1        0.1189
     10 N          65.5222   95.8023   -5.1624 N.ar    1  UNL1       -0.1303
     11 C          65.2786   96.5449   -3.8821 C.ar    1  UNL1        0.1195
     12 C          64.5083   95.6440   -2.9630 C.ar    1  UNL1        0.0312
     13 C          64.2757   94.3445   -3.6752 C.ar    1  UNL1        0.0954
     14 N          64.9024   94.4423   -5.0345 N.ar    1  UNL1       -0.1519
     15 C          63.5053   93.4435   -2.7560 C.3     1  UNL1        0.1205
     16 N          63.2618   94.1862   -1.4758 N.3     1  UNL1       -0.2625
     17 C          63.8816   95.5461   -1.6036 C.3     1  UNL1        0.1024
     18 C          66.9911   96.8524   -7.5581 C.3     1  UNL1        0.2042
     19 S          66.2566   96.3274   -6.3603 S.O2    1  UNL1        0.0828
     20 O          67.3714   96.7945   -5.4720 O.2     1  UNL1       -0.1508
     21 O          65.1419   95.8602   -7.2486 O.2     1  UNL1       -0.1508
     22 C          60.3240   92.0859    3.3157 C.ar    1  UNL1        0.0355
     23 C          58.8853   92.4505    3.5325 C.ar    1  UNL1        0.0300
     24 C          58.1509   91.9254    4.7304 C.ar    1  UNL1        0.1400
     25 F          56.7120   92.2900    4.9472 F       1  UNL1       -0.2042
     26 C          58.8551   91.0357    5.7114 C.ar    1  UNL1        0.0319
     27 C          60.2939   90.6711    5.4945 C.ar    1  UNL1        0.0317
     28 C          61.0283   91.1962    4.2967 C.ar    1  UNL1        0.1386
     29 F          62.4671   90.8316    4.0798 F       1  UNL1       -0.2044
     30 C          64.7189   93.7695    1.1133 C.3     1  UNL1        0.4234
     31 F          66.1819   94.0862    1.2100 F       1  UNL1       -0.1674
     32 F          65.0311   92.5968    0.2314 F       1  UNL1       -0.1674
     33 F          64.4068   94.9420    1.9951 F       1  UNL1       -0.1674
@<TRIPOS>BOND
     1    18    19    1
     2    19    20    2
     3    19    21    2
     4    19    10    1
     5    10    11   ar
     6    11    12   ar
     7    12    13   ar
     8    13    14   ar
     9    13    15    1
    10    15    16    1
    11     1    16    1
    12     1     2    1
    13     2     3    1
    14     3     4    1
    15     3     5    1
    16     5    22    1
    17    22    23   ar
    18    23    24   ar
    19    24    25    1
    20    24    26   ar
    21    26    27   ar
    22    27    28   ar
    23    28    29    1
    24     5     6    1
    25     6     7    1
    26     7    30    1
    27    30    31    1
    28    30    32    1
    29    30    33    1
    30    16    17    1
    31    14    10   ar
    32     7     1    1
    33    17    12    1
    34    28    22   ar
    35     4     8    1
    36     4     9    1
@<TRIPOS>MOLECULE
*****
 33 36 0 0 0
SMALL
GASTEIGER

@<TRIPOS>ATOM
      1 C          63.7954   88.1727   12.7687 C.3     1  UNL1        0.0954
      2 C          64.4520   87.3527   13.8394 C.3     1  UNL1        0.0371
      3 C          64.0440   85.9241   14.0461 C.3     1  UNL1        0.0841
      4 N          64.7006   85.1040   15.1169 N.3     1  UNL1       -0.3199
      5 C          62.9795   85.3156   13.1822 C.3     1  UNL1        0.1540
      6 O          62.3229   86.1356   12.1115 O.3     1  UNL1       -0.3432
      7 C          62.7309   87.5642   11.9047 C.3     1  UNL1        0.2247
      8 H          65.3944   85.6722   15.6028 H       1  UNL1        0.1189
      9 H          65.1582   84.2964   14.6941 H       1  UNL1        0.1189
     10 N          65.4590   93.9979   11.9257 N.ar    1  UNL1       -0.1303
     11 C          64.8757   93.0882   10.8854 C.ar    1  UNL1        0.1195
     12 C          64.6189   91.7563   11.5258 C.ar    1  UNL1        0.0312
     13 C          65.0435   91.8428   12.9619 C.ar    1  UNL1        0.0954
     14 N          65.5627   93.2283   13.2090 N.ar    1  UNL1       -0.1519
     15 C          64.7867   90.5109   13.6022 C.3     1  UNL1        0.1205
     16 N          64.2034   89.6013   12.5620 N.3     1  UNL1       -0.2625
     17 C          64.0997   90.3709   11.2787 C.3     1  UNL1        0.1024
     18 C          66.2750   96.8551   11.5122 C.3     1  UNL1        0.2042
     19 S          65.8670   95.4265   11.7189 S.O2    1  UNL1        0.0828
     20 O          66.3691   95.4875   13.1311 O.2     1  UNL1       -0.1508
     21 O          65.3649   95.3655   10.3068 O.2     1  UNL1       -0.1508
     22 C          62.5715   83.8870   13.3889 C.ar    1  UNL1        0.0355
     23 C          62.8361   82.8691   12.3194 C.ar    1  UNL1        0.0300
     24 C          62.4281   81.4406   12.5262 C.ar    1  UNL1        0.1400
     25 F          62.6928   80.4227   11.4566 F       1  UNL1       -0.2042
     26 C          61.7555   81.0299   13.8024 C.ar    1  UNL1        0.0319
     27 C          61.4909   82.0477   14.8719 C.ar    1  UNL1        0.0317
     28 C          61.8989   83.4763   14.6652 C.ar    1  UNL1        0.1386
     29 F          61.6342   84.4942   15.7348 F       1  UNL1       -0.2044
     30 C          62.0743   88.3842   10.8340 C.3     1  UNL1        0.4234
     31 F          61.4177   89.2043    9.7633 F       1  UNL1       -0.1674
     32 F          62.8581   87.6471    9.7888 F       1  UNL1       -0.1674
     33 F          61.2906   89.1213   11.8791 F       1  UNL1       -0.1674
@<TRIPOS>BOND
     1    18    19    1
     2    19    20    2
     3    19    21    2
     4    19    10    1
     5    10    11   ar
     6    11    12   ar
     7    12    13   ar
     8    13    14   ar
     9    13    15    1
    10    15    16    1
    11     1    16    1
    12     1     2    1
    13     2     3    1
    14     3     4    1
    15     3     5    1
    16     5    22    1
    17    22    23   ar
    18    23    24   ar
    19    24    25    1
    20    24    26   ar
    21    26    27   ar
    22    27    28   ar
    23    28    29    1
    24     5     6    1
    25     6     7    1
    26     7    30    1
    27    30    31    1
    28    30    32    1
    29    30    33    1
    30    16    17    1
    31    14    10   ar
    32     7     1    1
    33    17    12    1
    34    28    22   ar
    35     4     8    1
    36     4     9    1
@<TRIPOS>MOLECULE
*****
 33 36 0 0 0
SMALL
GASTEIGER

@<TRIPOS>ATOM
      1 C          57.0426   95.3465   -3.9372 C.3     1  UNL1        0.0954
      2 C          58.1612   96.1604   -4.5169 C.3     1  UNL1        0.0371
      3 C          59.5743   95.9122   -4.0791 C.3     1  UNL1        0.0841
      4 N          60.6930   96.7262   -4.6588 N.3     1  UNL1       -0.3199
      5 C          59.8687   94.8502   -3.0616 C.3     1  UNL1        0.1540
      6 O          58.7500   94.0363   -2.4819 O.3     1  UNL1       -0.3432
      7 C          57.3370   94.2844   -2.9197 C.3     1  UNL1        0.2247
      8 H          60.3145   97.3957   -5.3289 H       1  UNL1        0.1189
      9 H          61.3534   96.1088   -5.1311 H       1  UNL1        0.1189
     10 N          51.2805   96.3582   -5.7224 N.ar    1  UNL1       -0.1303
     11 C          52.4200   95.9523   -6.6094 C.ar    1  UNL1        0.1195
     12 C          53.6460   95.8156   -5.7559 C.ar    1  UNL1        0.0312
     13 C          53.2642   96.1371   -4.3414 C.ar    1  UNL1        0.0954
     14 N          51.8023   96.4725   -4.3207 N.ar    1  UNL1       -0.1519
     15 C          54.4901   96.0005   -3.4879 C.3     1  UNL1        0.1205
     16 N          55.6295   95.5946   -4.3750 N.3     1  UNL1       -0.2625
     17 C          55.1079   95.4803   -5.7766 C.3     1  UNL1        0.1024
     18 C          48.4544   96.8544   -6.5980 C.3     1  UNL1        0.2042
     19 S          49.8675   96.6063   -6.1602 S.O2    1  UNL1        0.0828
     20 O          50.3450   96.8559   -7.5601 O.2     1  UNL1       -0.1508
     21 O          49.3899   96.3568   -4.7603 O.2     1  UNL1       -0.1508
     22 C          61.2818   94.6021   -2.6238 C.ar    1  UNL1        0.0355
     23 C          62.1109   93.5632   -3.3189 C.ar    1  UNL1        0.0300
     24 C          63.5239   93.3151   -2.8811 C.ar    1  UNL1        0.1400
     25 F          64.3531   92.2762   -3.5763 F       1  UNL1       -0.2042
     26 C          64.1079   94.1059   -1.7481 C.ar    1  UNL1        0.0319
     27 C          63.2788   95.1447   -1.0530 C.ar    1  UNL1        0.0317
     28 C          61.8657   95.3928   -1.4908 C.ar    1  UNL1        0.1386
     29 F          61.0366   96.4318   -0.7956 F       1  UNL1       -0.2044
     30 C          56.2183   93.4704   -2.3399 C.3     1  UNL1        0.4234
     31 F          55.0997   92.6565   -1.7601 F       1  UNL1       -0.1674
     32 F          56.1584   92.6563   -3.5984 F       1  UNL1       -0.1674
     33 F          56.2782   94.2845   -1.0815 F       1  UNL1       -0.1674
@<TRIPOS>BOND
     1    18    19    1
     2    19    20    2
     3    19    21    2
     4    19    10    1
     5    10    11   ar
     6    11    12   ar
     7    12    13   ar
     8    13    14   ar
     9    13    15    1
    10    15    16    1
    11     1    16    1
    12     1     2    1
    13     2     3    1
    14     3     4    1
    15     3     5    1
    16     5    22    1
    17    22    23   ar
    18    23    24   ar
    19    24    25    1
    20    24    26   ar
    21    26    27   ar
    22    27    28   ar
    23    28    29    1
    24     5     6    1
    25     6     7    1
    26     7    30    1
    27    30    31    1
    28    30    32    1
    29    30    33    1
    30    16    17    1
    31    14    10   ar
    32     7     1    1
    33    17    12    1
    34    28    22   ar
    35     4     8    1
    36     4     9    1
@<TRIPOS>MOLECULE
*****
 33 36 0 0 0
SMALL
GASTEIGER

@<TRIPOS>ATOM
      1 C          72.3924   75.5743   12.6819 C.3     1  UNL1        0.0954
      2 C          72.5449   74.2936   11.9162 C.3     1  UNL1        0.0371
      3 C          72.4627   72.9777   12.6316 C.3     1  UNL1        0.0841
      4 N          72.6152   71.6969   11.8658 N.3     1  UNL1       -0.3199
      5 C          72.2279   72.9427   14.1126 C.3     1  UNL1        0.1540
      6 O          72.0754   74.2234   14.8783 O.3     1  UNL1       -0.3432
      7 C          72.1577   75.5393   14.1629 C.3     1  UNL1        0.2247
      8 H          72.7671   71.9066   10.8792 H       1  UNL1        0.1189
      9 H          71.7688   71.1369   11.9680 H       1  UNL1        0.1189
     10 N          72.7279   80.9399    9.7647 N.ar    1  UNL1       -0.1303
     11 C          73.6326   79.7626    9.5519 C.ar    1  UNL1        0.1195
     12 C          73.1904   78.6654   10.4742 C.ar    1  UNL1        0.0312
     13 C          72.0123   79.1646   11.2570 C.ar    1  UNL1        0.0954
     14 N          71.7265   80.5704   10.8185 N.ar    1  UNL1       -0.1519
     15 C          71.5700   78.0675   12.1793 C.3     1  UNL1        0.1205
     16 N          72.4747   76.8902   11.9665 N.3     1  UNL1       -0.2625
     17 C          73.4761   77.2596   10.9127 C.3     1  UNL1        0.1024
     18 C          72.8925   83.5716    8.3339 C.3     1  UNL1        0.2042
     19 S          72.8102   82.2558    9.0493 S.O2    1  UNL1        0.0828
     20 O          73.5597   81.5993    7.9281 O.2     1  UNL1       -0.1508
     21 O          72.0606   82.9122   10.1706 O.2     1  UNL1       -0.1508
     22 C          72.1456   71.6268   14.8280 C.ar    1  UNL1        0.0355
     23 C          71.3631   70.4956   14.2299 C.ar    1  UNL1        0.0300
     24 C          71.2808   69.1797   14.9453 C.ar    1  UNL1        0.1400
     25 F          70.4982   68.0485   14.3470 F       1  UNL1       -0.2042
     26 C          71.9811   68.9951   16.2588 C.ar    1  UNL1        0.0319
     27 C          72.7637   70.1264   16.8570 C.ar    1  UNL1        0.0317
     28 C          72.8459   71.4422   16.1416 C.ar    1  UNL1        0.1386
     29 F          73.6286   72.5735   16.7398 F       1  UNL1       -0.2044
     30 C          72.0052   76.8201   14.9287 C.3     1  UNL1        0.4234
     31 F          71.8526   78.1009   15.6944 F       1  UNL1       -0.1674
     32 F          73.4931   77.0094   14.9083 F       1  UNL1       -0.1674
     33 F          70.5173   76.6307   14.9490 F       1  UNL1       -0.1674
@<TRIPOS>BOND
     1    18    19    1
     2    19    20    2
     3    19    21    2
     4    19    10    1
     5    10    11   ar
     6    11    12   ar
     7    12    13   ar
     8    13    14   ar
     9    13    15    1
    10    15    16    1
    11     1    16    1
    12     1     2    1
    13     2     3    1
    14     3     4    1
    15     3     5    1
    16     5    22    1
    17    22    23   ar
    18    23    24   ar
    19    24    25    1
    20    24    26   ar
    21    26    27   ar
    22    27    28   ar
    23    28    29    1
    24     5     6    1
    25     6     7    1
    26     7    30    1
    27    30    31    1
    28    30    32    1
    29    30    33    1
    30    16    17    1
    31    14    10   ar
    32     7     1    1
    33    17    12    1
    34    28    22   ar
    35     4     8    1
    36     4     9    1
@<TRIPOS>MOLECULE
*****
 33 36 0 0 0
SMALL
GASTEIGER

@<TRIPOS>ATOM
      1 C          72.0902   75.2682   13.0794 C.3     1  UNL1        0.0954
      2 C          72.0100   73.8815   12.5131 C.3     1  UNL1        0.0371
      3 C          71.8905   72.7019   13.4319 C.3     1  UNL1        0.0841
      4 N          71.8102   71.3152   12.8655 N.3     1  UNL1       -0.3199
      5 C          71.8511   72.9089   14.9170 C.3     1  UNL1        0.1540
      6 O          71.9313   74.2956   15.4833 O.3     1  UNL1       -0.3432
      7 C          72.0509   75.4752   14.5645 C.3     1  UNL1        0.2247
      8 H          71.8509   71.3609   11.8473 H       1  UNL1        0.1189
      9 H          70.9326   70.8813   13.1516 H       1  UNL1        0.1189
     10 N          72.5778   80.0783    9.3328 N.ar    1  UNL1       -0.1303
     11 C          71.3827   79.7301   10.1697 C.ar    1  UNL1        0.1195
     12 C          71.6986   78.4764   10.9302 C.ar    1  UNL1        0.0312
     13 C          73.0890   78.0496   10.5633 C.ar    1  UNL1        0.0954
     14 N          73.6324   79.0397    9.5760 N.ar    1  UNL1       -0.1519
     15 C          73.4049   76.7959   11.3237 C.3     1  UNL1        0.1205
     16 N          72.2098   76.4478   12.1606 N.3     1  UNL1       -0.2625
     17 C          71.1552   77.4863   11.9174 C.3     1  UNL1        0.1024
     18 C          72.8170   82.4375    7.4952 C.3     1  UNL1        0.2042
     19 S          72.6974   81.2579    8.4140 S.O2    1  UNL1        0.0828
     20 O          72.2011   82.1587    9.5060 O.2     1  UNL1       -0.1508
     21 O          73.1936   80.3571    7.3221 O.2     1  UNL1       -0.1508
     22 C          71.7315   71.7293   15.8358 C.ar    1  UNL1        0.0355
     23 C          72.5508   70.4979   15.5858 C.ar    1  UNL1        0.0300
     24 C          72.4312   69.3183   16.5046 C.ar    1  UNL1        0.1400
     25 F          73.2505   68.0868   16.2547 F       1  UNL1       -0.2042
     26 C          71.4924   69.3700   17.6734 C.ar    1  UNL1        0.0319
     27 C          70.6732   70.6014   17.9233 C.ar    1  UNL1        0.0317
     28 C          70.7927   71.7811   17.0045 C.ar    1  UNL1        0.1386
     29 F          69.9735   73.0125   17.2544 F       1  UNL1       -0.2044
     30 C          72.1311   76.8619   15.1308 C.3     1  UNL1        0.4234
     31 F          72.2114   78.2485   15.6972 F       1  UNL1       -0.1674
     32 F          70.6333   76.9420   15.1469 F       1  UNL1       -0.1674
     33 F          73.6288   76.7817   15.1148 F       1  UNL1       -0.1674
@<TRIPOS>BOND
     1    18    19    1
     2    19    20    2
     3    19    21    2
     4    19    10    1
     5    10    11   ar
     6    11    12   ar
     7    12    13   ar
     8    13    14   ar
     9    13    15    1
    10    15    16    1
    11     1    16    1
    12     1     2    1
    13     2     3    1
    14     3     4    1
    15     3     5    1
    16     5    22    1
    17    22    23   ar
    18    23    24   ar
    19    24    25    1
    20    24    26   ar
    21    26    27   ar
    22    27    28   ar
    23    28    29    1
    24     5     6    1
    25     6     7    1
    26     7    30    1
    27    30    31    1
    28    30    32    1
    29    30    33    1
    30    16    17    1
    31    14    10   ar
    32     7     1    1
    33    17    12    1
    34    28    22   ar
    35     4     8    1
    36     4     9    1
