@<TRIPOS>MOLECULE
*****
 13 14 0 0 0
SMALL
GASTEIGER

@<TRIPOS>ATOM
      1 C          65.3912   92.7727   11.3626 C.ar    1  UNL1        0.0195
      2 C          64.3460   91.9214   10.7047 C.ar    1  UNL1        0.0055
      3 C          63.5133   90.9851   11.5294 C.ar    1  UNL1        0.0497
      4 C          63.7258   90.9002   13.0118 C.ar    1  UNL1        0.2223
      5 F          62.8931   89.9639   13.8364 F       1  UNL1       -0.1832
      6 N          64.7710   91.7516   13.6696 N.ar    1  UNL1       -0.2165
      7 C          65.6036   92.6878   12.8450 C.ar    1  UNL1        0.1012
      8 C          68.0867   91.9847    9.7003 C.3     1  UNL1        0.0316
      9 C          67.4629   93.3468    9.7739 C.ar    1  UNL1       -0.0148
     10 C          67.9685   94.5859    9.0964 C.ar    1  UNL1        0.0312
     11 S          67.0420   95.7140    9.4417 S.2     1  UNL1       -0.0863
     12 C          65.9638   95.1720   10.3327 C.ar    1  UNL1        0.0352
     13 C          66.2239   93.7090   10.5380 C.ar    1  UNL1        0.0045
@<TRIPOS>BOND
     1     8     9    1
     2     9    10   ar
     3    10    11   ar
     4    11    12   ar
     5    12    13   ar
     6    13     1    1
     7     1     2   ar
     8     2     3   ar
     9     3     4   ar
    10     4     5    1
    11     4     6   ar
    12     6     7   ar
    13    13     9   ar
    14     7     1   ar
@<TRIPOS>MOLECULE
*****
 13 14 0 0 0
SMALL
GASTEIGER

@<TRIPOS>ATOM
      1 C          63.4257   84.2573   13.6866 C.ar    1  UNL1        0.0195
      2 C          64.2819   84.5568   14.8813 C.ar    1  UNL1        0.0055
      3 C          64.6998   85.9682   15.1695 C.ar    1  UNL1        0.0497
      4 C          64.2616   87.0802   14.2631 C.ar    1  UNL1        0.2223
      5 F          64.6796   88.4917   14.5514 F       1  UNL1       -0.1832
      6 N          63.4054   86.7807   13.0685 N.ar    1  UNL1       -0.2165
      7 C          62.9875   85.3692   12.7802 C.ar    1  UNL1        0.1012
      8 C          64.2529   82.5108   11.0569 C.3     1  UNL1        0.0316
      9 C          63.3879   82.0431   12.1897 C.ar    1  UNL1       -0.0148
     10 C          62.7513   80.6904   12.3125 C.ar    1  UNL1        0.0312
     11 S          61.9776   80.6572   13.5972 S.2     1  UNL1       -0.0863
     12 C          62.1361   81.9893   14.2683 C.ar    1  UNL1        0.0352
     13 C          63.0077   82.8458   13.3984 C.ar    1  UNL1        0.0045
@<TRIPOS>BOND
     1     8     9    1
     2     9    10   ar
     3    10    11   ar
     4    11    12   ar
     5    12    13   ar
     6    13     1    1
     7     1     2   ar
     8     2     3   ar
     9     3     4   ar
    10     4     5    1
    11     4     6   ar
    12     6     7   ar
    13    13     9   ar
    14     7     1   ar
@<TRIPOS>MOLECULE
*****
 13 14 0 0 0
SMALL
GASTEIGER

@<TRIPOS>ATOM
      1 C          63.3613   84.8144   14.0124 C.ar    1  UNL1        0.0195
      2 C          64.2516   85.9326   14.4673 C.ar    1  UNL1        0.0055
      3 C          64.0882   86.5094   15.8423 C.ar    1  UNL1        0.0497
      4 C          63.0345   85.9680   16.7623 C.ar    1  UNL1        0.2223
      5 F          62.8711   86.5449   18.1374 F       1  UNL1       -0.1832
      6 N          62.1442   84.8498   16.3075 N.ar    1  UNL1       -0.2165
      7 C          62.3076   84.2730   14.9325 C.ar    1  UNL1        0.1012
      8 C          61.8972   85.8814   11.2981 C.3     1  UNL1        0.0316
      9 C          62.8518   84.7280   11.3898 C.ar    1  UNL1       -0.0148
     10 C          63.3009   83.8625   10.2500 C.ar    1  UNL1        0.0312
     11 S          64.2515   82.8371   10.7932 S.2     1  UNL1       -0.0863
     12 C          64.3898   83.0689   12.2687 C.ar    1  UNL1        0.0352
     13 C          63.5247   84.2376   12.6374 C.ar    1  UNL1        0.0045
@<TRIPOS>BOND
     1     8     9    1
     2     9    10   ar
     3    10    11   ar
     4    11    12   ar
     5    12    13   ar
     6    13     1    1
     7     1     2   ar
     8     2     3   ar
     9     3     4   ar
    10     4     5    1
    11     4     6   ar
    12     6     7   ar
    13    13     9   ar
    14     7     1   ar
@<TRIPOS>MOLECULE
*****
 13 14 0 0 0
SMALL
GASTEIGER

@<TRIPOS>ATOM
      1 C          62.1417   85.5977   10.0334 C.ar    1  UNL1        0.0195
      2 C          63.0606   84.7626    9.1919 C.ar    1  UNL1        0.0055
      3 C          63.9165   83.7110    9.8333 C.ar    1  UNL1        0.0497
      4 C          63.8536   83.4945   11.3163 C.ar    1  UNL1        0.2223
      5 F          64.7096   82.4428   11.9577 F       1  UNL1       -0.1832
      6 N          62.9347   84.3296   12.1578 N.ar    1  UNL1       -0.2165
      7 C          62.0788   85.3812   11.5163 C.ar    1  UNL1        0.1012
      8 C          62.3963   88.8191   10.4892 C.3     1  UNL1        0.0316
      9 C          61.4028   88.1300    9.6015 C.ar    1  UNL1       -0.0148
     10 C          60.3518   88.8007    8.7674 C.ar    1  UNL1        0.0312
     11 S          59.5852   87.7345    8.0423 S.2     1  UNL1       -0.0863
     12 C          60.1625   86.4049    8.4283 C.ar    1  UNL1        0.0352
     13 C          61.2857   86.6493    9.3919 C.ar    1  UNL1        0.0045
@<TRIPOS>BOND
     1     8     9    1
     2     9    10   ar
     3    10    11   ar
     4    11    12   ar
     5    12    13   ar
     6    13     1    1
     7     1     2   ar
     8     2     3   ar
     9     3     4   ar
    10     4     5    1
    11     4     6   ar
    12     6     7   ar
    13    13     9   ar
    14     7     1   ar
@<TRIPOS>MOLECULE
*****
 13 14 0 0 0
SMALL
GASTEIGER

@<TRIPOS>ATOM
      1 C          62.8252   84.5409   12.6097 C.ar    1  UNL1        0.0195
      2 C          62.1776   85.1970   11.4265 C.ar    1  UNL1        0.0055
      3 C          62.2893   86.6808   11.2374 C.ar    1  UNL1        0.0497
      4 C          63.0485   87.5085   12.2316 C.ar    1  UNL1        0.2223
      5 F          63.1601   88.9924   12.0425 F       1  UNL1       -0.1832
      6 N          63.6961   86.8525   13.4148 N.ar    1  UNL1       -0.2165
      7 C          63.5845   85.3687   13.6039 C.ar    1  UNL1        0.1012
      8 C          63.8396   82.2578   10.5101 C.3     1  UNL1        0.0316
      9 C          63.1799   82.0077   11.8338 C.ar    1  UNL1       -0.0148
     10 C          62.8706   80.6641   12.4247 C.ar    1  UNL1        0.0312
     11 S          62.2132   80.8831   13.7552 S.2     1  UNL1       -0.0863
     12 C          62.1162   82.3620   13.9863 C.ar    1  UNL1        0.0352
     13 C          62.7137   83.0570   12.7989 C.ar    1  UNL1        0.0045
@<TRIPOS>BOND
     1     8     9    1
     2     9    10   ar
     3    10    11   ar
     4    11    12   ar
     5    12    13   ar
     6    13     1    1
     7     1     2   ar
     8     2     3   ar
     9     3     4   ar
    10     4     5    1
    11     4     6   ar
    12     6     7   ar
    13    13     9   ar
    14     7     1   ar
@<TRIPOS>MOLECULE
*****
 13 14 0 0 0
SMALL
GASTEIGER

@<TRIPOS>ATOM
      1 C          62.1977   85.9128    9.9182 C.ar    1  UNL1        0.0195
      2 C          62.1227   85.3674   11.3134 C.ar    1  UNL1        0.0055
      3 C          62.8716   84.1180   11.6715 C.ar    1  UNL1        0.0497
      4 C          63.6956   83.4142   10.6343 C.ar    1  UNL1        0.2223
      5 F          64.4445   82.1648   10.9925 F       1  UNL1       -0.1832
      6 N          63.7706   83.9596    9.2391 N.ar    1  UNL1       -0.2165
      7 C          63.0217   85.2090    8.8810 C.ar    1  UNL1        0.1012
      8 C          59.8129   86.1515    7.7033 C.3     1  UNL1        0.0316
      9 C          60.3527   87.2719    8.5420 C.ar    1  UNL1       -0.0148
     10 C          59.8910   88.6987    8.5098 C.ar    1  UNL1        0.0312
     11 S          60.7018   89.4709    9.5080 S.2     1  UNL1       -0.0863
     12 C          61.6646   88.5213   10.1570 C.ar    1  UNL1        0.0352
     13 C          61.4488   87.1622    9.5600 C.ar    1  UNL1        0.0045
@<TRIPOS>BOND
     1     8     9    1
     2     9    10   ar
     3    10    11   ar
     4    11    12   ar
     5    12    13   ar
     6    13     1    1
     7     1     2   ar
     8     2     3   ar
     9     3     4   ar
    10     4     5    1
    11     4     6   ar
    12     6     7   ar
    13    13     9   ar
    14     7     1   ar
@<TRIPOS>MOLECULE
*****
 13 14 0 0 0
SMALL
GASTEIGER

@<TRIPOS>ATOM
      1 C          62.1099   85.6598    9.8437 C.ar    1  UNL1        0.0195
      2 C          62.0521   85.3643   11.3132 C.ar    1  UNL1        0.0055
      3 C          62.9219   84.2906   11.8969 C.ar    1  UNL1        0.0497
      4 C          63.8493   83.5126   11.0113 C.ar    1  UNL1        0.2223
      5 F          64.7191   82.4389   11.5951 F       1  UNL1       -0.1832
      6 N          63.9071   83.8081    9.5418 N.ar    1  UNL1       -0.2165
      7 C          63.0373   84.8817    8.9581 C.ar    1  UNL1        0.1012
      8 C          62.3564   88.8601   10.4331 C.3     1  UNL1        0.0316
      9 C          61.3534   88.2044    9.5308 C.ar    1  UNL1       -0.0148
     10 C          60.2877   88.9047    8.7410 C.ar    1  UNL1        0.0312
     11 S          59.5156   87.8665    7.9819 S.2     1  UNL1       -0.0863
     12 C          60.1043   86.5246    8.3026 C.ar    1  UNL1        0.0352
     13 C          61.2401   86.7335    9.2599 C.ar    1  UNL1        0.0045
@<TRIPOS>BOND
     1     8     9    1
     2     9    10   ar
     3    10    11   ar
     4    11    12   ar
     5    12    13   ar
     6    13     1    1
     7     1     2   ar
     8     2     3   ar
     9     3     4   ar
    10     4     5    1
    11     4     6   ar
    12     6     7   ar
    13    13     9   ar
    14     7     1   ar
@<TRIPOS>MOLECULE
*****
 13 14 0 0 0
SMALL
GASTEIGER

@<TRIPOS>ATOM
      1 C          62.6726   84.9122   11.2661 C.ar    1  UNL1        0.0195
      2 C          63.3286   84.5487    9.9671 C.ar    1  UNL1        0.0055
      3 C          62.8027   85.1089    8.6789 C.ar    1  UNL1        0.0497
      4 C          61.6209   86.0325    8.6896 C.ar    1  UNL1        0.2223
      5 F          61.0950   86.5926    7.4013 F       1  UNL1       -0.1832
      6 N          60.9649   86.3960    9.9886 N.ar    1  UNL1       -0.2165
      7 C          61.4908   85.8358   11.2769 C.ar    1  UNL1        0.1012
      8 C          62.5785   81.7797   12.1761 C.3     1  UNL1        0.0316
      9 C          63.1552   82.9122   12.9727 C.ar    1  UNL1       -0.0148
     10 C          63.7899   82.8038   14.3275 C.ar    1  UNL1        0.0312
     11 S          64.2255   84.1766   14.7465 S.2     1  UNL1       -0.0863
     12 C          63.8600   85.1335   13.6508 C.ar    1  UNL1        0.0352
     13 C          63.1985   84.3521   12.5545 C.ar    1  UNL1        0.0045
@<TRIPOS>BOND
     1     8     9    1
     2     9    10   ar
     3    10    11   ar
     4    11    12   ar
     5    12    13   ar
     6    13     1    1
     7     1     2   ar
     8     2     3   ar
     9     3     4   ar
    10     4     5    1
    11     4     6   ar
    12     6     7   ar
    13    13     9   ar
    14     7     1   ar
@<TRIPOS>MOLECULE
*****
 13 14 0 0 0
SMALL
GASTEIGER

@<TRIPOS>ATOM
      1 C          62.3030   85.9923   10.3965 C.ar    1  UNL1        0.0195
      2 C          62.8871   85.1043    9.3381 C.ar    1  UNL1        0.0055
      3 C          63.5696   83.8258    9.7245 C.ar    1  UNL1        0.0497
      4 C          63.6680   83.4351   11.1694 C.ar    1  UNL1        0.2223
      5 F          64.3506   82.1565   11.5559 F       1  UNL1       -0.1832
      6 N          63.0839   84.3231   12.2279 N.ar    1  UNL1       -0.2165
      7 C          62.4014   85.6016   11.8414 C.ar    1  UNL1        0.1012
      8 C          59.9711   86.3148    8.1364 C.3     1  UNL1        0.0316
      9 C          60.5486   87.4191    8.9712 C.ar    1  UNL1       -0.0148
     10 C          60.1556   88.8656    8.9138 C.ar    1  UNL1        0.0312
     11 S          60.9846   89.6114    9.9172 S.2     1  UNL1       -0.0863
     12 C          61.8898   88.6258   10.5947 C.ar    1  UNL1        0.0352
     13 C          61.6204   87.2709   10.0101 C.ar    1  UNL1        0.0045
@<TRIPOS>BOND
     1     8     9    1
     2     9    10   ar
     3    10    11   ar
     4    11    12   ar
     5    12    13   ar
     6    13     1    1
     7     1     2   ar
     8     2     3   ar
     9     3     4   ar
    10     4     5    1
    11     4     6   ar
    12     6     7   ar
    13    13     9   ar
    14     7     1   ar
