@<TRIPOS>MOLECULE
*****
 47 52 0 0 0
SMALL
GASTEIGER

@<TRIPOS>ATOM
      1 N          61.2430   86.9264   11.4506 N.am    1  UNL1       -0.2803
      2 C          62.2685   85.8361   11.3521 C.2     1  UNL1        0.2507
      3 O          62.9184   85.5346   10.0343 O.2     1  UNL1       -0.2698
      4 H          60.8164   87.1243   12.3155 H       1  UNL1        0.1552
      5 C          60.1166   89.2927    7.7923 C.ar    1  UNL1        0.0480
      6 C          59.7927   87.8300    7.8686 C.ar    1  UNL1        0.0158
      7 C          60.1681   87.0413    9.0880 C.ar    1  UNL1        0.0159
      8 C          60.8676   87.7152   10.2311 C.ar    1  UNL1        0.0506
      9 C          61.1915   89.1778   10.1548 C.ar    1  UNL1        0.0159
     10 C          60.8161   89.9665    8.9354 C.ar    1  UNL1        0.0158
     11 N          58.9903   91.6588    4.1341 N.3     1  UNL1       -0.2660
     12 C          57.9233   91.1633    5.0647 C.3     1  UNL1        0.0941
     13 C          58.2987   90.3746    6.2841 C.3     1  UNL1        0.1081
     14 N          59.7412   90.0813    6.5729 N.pl3   1  UNL1       -0.3046
     15 C          60.8081   90.5768    5.6423 C.3     1  UNL1        0.1081
     16 C          60.4327   91.3655    4.4229 C.3     1  UNL1        0.0941
     17 C          58.6148   92.4474    2.9147 C.3     1  UNL1        0.0993
     18 C          61.7707   93.6018   -0.0782 C.ar    1  UNL1        0.1724
     19 C          60.7870   92.5179   -0.4059 C.ar    1  UNL1        0.0398
     20 C          59.7351   92.1332    0.5917 C.ar    1  UNL1        0.0004
     21 C          59.6668   92.8323    1.9170 C.ar    1  UNL1       -0.0029
     22 C          60.6505   93.9162    2.2448 C.ar    1  UNL1        0.0371
     23 C          61.7025   94.3010    1.2471 C.ar    1  UNL1        0.1721
     24 C          62.5187   93.9356   -2.5438 C.3     1  UNL1        0.2526
     25 O          62.8228   93.9867   -1.0759 O.3     1  UNL1       -0.4684
     26 O          62.6862   95.3849    1.5748 O.3     1  UNL1       -0.4684
     27 C          64.0972   95.0315    1.9414 C.3     1  UNL1        0.2526
     28 C          62.6440   85.0473   12.5715 C.ar    1  UNL1        0.0671
     29 C          62.1085   83.6590   12.7608 C.ar    1  UNL1        0.0058
     30 C          62.4840   82.8702   13.9802 C.ar    1  UNL1        0.0002
     31 C          63.3949   83.4697   15.0102 C.ar    1  UNL1        0.0013
     32 C          63.9303   84.8581   14.8208 C.ar    1  UNL1        0.0148
     33 C          63.5548   85.6469   13.6014 C.ar    1  UNL1        0.0549
     34 N          64.0903   87.0352   13.4121 N.am    1  UNL1       -0.2802
     35 C          63.9783   88.0399   14.5202 C.2     1  UNL1        0.2510
     36 O          63.3308   87.6563   15.8178 O.2     1  UNL1       -0.2698
     37 H          64.5152   87.2870   12.5604 H       1  UNL1        0.1552
     38 C          64.5137   89.4283   14.3308 C.ar    1  UNL1        0.0728
     39 C          63.7832   90.4005   13.4526 C.ar    1  UNL1        0.1033
     40 N          64.3186   91.7888   13.2632 N.ar    1  UNL1       -0.2437
     41 C          65.5846   92.2049   13.9519 C.ar    1  UNL1        0.0813
     42 C          66.1200   93.5932   13.7625 C.ar    1  UNL1        0.0191
     43 C          67.3858   94.0093   14.4512 C.ar    1  UNL1        0.0015
     44 C          68.1163   93.0371   15.3293 C.ar    1  UNL1        0.0001
     45 C          67.5809   91.6488   15.5188 C.ar    1  UNL1        0.0015
     46 C          66.3151   91.2327   14.8301 C.ar    1  UNL1        0.0178
     47 C          65.7796   89.8443   15.0195 C.ar    1  UNL1        0.0076
@<TRIPOS>BOND
     1    24    25    1
     2    25    18    1
     3    18    19   ar
     4    19    20   ar
     5    20    21   ar
     6    21    17    1
     7    17    11    1
     8    11    12    1
     9    12    13    1
    10    13    14    1
    11    14     5    1
    12     5     6   ar
    13     6     7   ar
    14     7     8   ar
    15     8     1    1
    16     1     2   am
    17     2     3    2
    18     2    28    1
    19    28    29   ar
    20    29    30   ar
    21    30    31   ar
    22    31    32   ar
    23    32    33   ar
    24    33    34    1
    25    34    35   am
    26    35    36    2
    27    35    38    1
    28    38    39   ar
    29    39    40   ar
    30    40    41   ar
    31    41    42   ar
    32    42    43   ar
    33    43    44   ar
    34    44    45   ar
    35    45    46   ar
    36    46    47   ar
    37     8     9   ar
    38     9    10   ar
    39    14    15    1
    40    15    16    1
    41    21    22   ar
    42    22    23   ar
    43    23    26    1
    44    26    27    1
    45    23    18   ar
    46    16    11    1
    47    10     5   ar
    48    33    28   ar
    49    47    38   ar
    50    46    41   ar
    51     1     4    1
    52    34    37    1
@<TRIPOS>MOLECULE
*****
 47 52 0 0 0
SMALL
GASTEIGER

@<TRIPOS>ATOM
      1 N          61.2619   87.1330   11.5484 N.am    1  UNL1       -0.2803
      2 C          62.2864   86.0392   11.4839 C.2     1  UNL1        0.2507
      3 O          62.9395   85.6995   10.1769 O.2     1  UNL1       -0.2698
      4 H          60.8333   87.3560   12.4061 H       1  UNL1        0.1552
      5 C          60.1482   89.3952    7.8211 C.ar    1  UNL1        0.0480
      6 C          60.8635   90.0957    8.9381 C.ar    1  UNL1        0.0158
      7 C          61.2347   89.3417   10.1804 C.ar    1  UNL1        0.0159
      8 C          60.8907   87.8871   10.3059 C.ar    1  UNL1        0.0506
      9 C          60.1754   87.1865    9.1890 C.ar    1  UNL1        0.0159
     10 C          59.8041   87.9406    7.9465 C.ar    1  UNL1        0.0158
     11 N          59.0344   91.6574    4.0939 N.3     1  UNL1       -0.2660
     12 C          60.4763   91.3780    4.3990 C.3     1  UNL1        0.0941
     13 C          60.8475   90.6240    5.6414 C.3     1  UNL1        0.1081
     14 N          59.7769   90.1492    6.5787 N.pl3   1  UNL1       -0.3046
     15 C          58.3351   90.4286    6.2736 C.3     1  UNL1        0.1081
     16 C          57.9638   91.1827    5.0312 C.3     1  UNL1        0.0941
     17 C          58.6632   92.4115    2.8515 C.3     1  UNL1        0.0993
     18 C          61.8483   93.5933   -0.0995 C.ar    1  UNL1        0.1724
     19 C          60.8730   92.5068   -0.4436 C.ar    1  UNL1        0.0398
     20 C          59.8114   92.1129    0.5401 C.ar    1  UNL1        0.0004
     21 C          59.7249   92.8054    1.8678 C.ar    1  UNL1       -0.0029
     22 C          60.7002   93.8919    2.2119 C.ar    1  UNL1        0.0371
     23 C          61.7618   94.2858    1.2283 C.ar    1  UNL1        0.1721
     24 C          62.7328   93.6809   -2.5408 C.3     1  UNL1        0.2526
     25 O          62.9100   93.9873   -1.0832 O.3     1  UNL1       -0.4684
     26 O          62.7372   95.3724    1.5723 O.3     1  UNL1       -0.4684
     27 C          64.1491   95.0240    1.9397 C.3     1  UNL1        0.2526
     28 C          62.6577   85.2852   12.7262 C.ar    1  UNL1        0.0671
     29 C          62.0726   83.9281   12.9829 C.ar    1  UNL1        0.0058
     30 C          62.4439   83.1739   14.2253 C.ar    1  UNL1        0.0002
     31 C          63.4002   83.7770   15.2110 C.ar    1  UNL1        0.0013
     32 C          63.9853   85.1342   14.9543 C.ar    1  UNL1        0.0148
     33 C          63.6140   85.8882   13.7120 C.ar    1  UNL1        0.0549
     34 N          64.1991   87.2453   13.4554 N.am    1  UNL1       -0.2802
     35 C          64.0072   88.3462   14.4560 C.2     1  UNL1        0.2510
     36 O          63.2302   88.0900   15.7132 O.2     1  UNL1       -0.2698
     37 H          64.7091   87.4135   12.6302 H       1  UNL1        0.1552
     38 C          64.5923   89.7034   14.1993 C.ar    1  UNL1        0.0728
     39 C          65.3047   90.4332   15.2992 C.ar    1  UNL1        0.1033
     40 N          65.8898   91.7903   15.0426 N.ar    1  UNL1       -0.2437
     41 C          65.7626   92.4177   13.6860 C.ar    1  UNL1        0.0813
     42 C          66.3477   93.7748   13.4294 C.ar    1  UNL1        0.0191
     43 C          66.2204   94.4020   12.0728 C.ar    1  UNL1        0.0015
     44 C          65.5080   93.6722   10.9729 C.ar    1  UNL1        0.0001
     45 C          64.9229   92.3151   11.2295 C.ar    1  UNL1        0.0015
     46 C          65.0502   91.6878   12.5860 C.ar    1  UNL1        0.0178
     47 C          64.4651   90.3307   12.8427 C.ar    1  UNL1        0.0076
@<TRIPOS>BOND
     1    24    25    1
     2    25    18    1
     3    18    19   ar
     4    19    20   ar
     5    20    21   ar
     6    21    17    1
     7    17    11    1
     8    11    12    1
     9    12    13    1
    10    13    14    1
    11    14     5    1
    12     5     6   ar
    13     6     7   ar
    14     7     8   ar
    15     8     1    1
    16     1     2   am
    17     2     3    2
    18     2    28    1
    19    28    29   ar
    20    29    30   ar
    21    30    31   ar
    22    31    32   ar
    23    32    33   ar
    24    33    34    1
    25    34    35   am
    26    35    36    2
    27    35    38    1
    28    38    39   ar
    29    39    40   ar
    30    40    41   ar
    31    41    42   ar
    32    42    43   ar
    33    43    44   ar
    34    44    45   ar
    35    45    46   ar
    36    46    47   ar
    37     8     9   ar
    38     9    10   ar
    39    14    15    1
    40    15    16    1
    41    21    22   ar
    42    22    23   ar
    43    23    26    1
    44    26    27    1
    45    23    18   ar
    46    16    11    1
    47    10     5   ar
    48    33    28   ar
    49    47    38   ar
    50    46    41   ar
    51     1     4    1
    52    34    37    1
@<TRIPOS>MOLECULE
*****
 47 52 0 0 0
SMALL
GASTEIGER

@<TRIPOS>ATOM
      1 N          61.2429   87.1028   11.5862 N.am    1  UNL1       -0.2803
      2 C          62.2611   86.0037   11.5118 C.2     1  UNL1        0.2507
      3 O          62.8950   85.6564   10.1974 O.2     1  UNL1       -0.2698
      4 H          60.8268   87.3308   12.4488 H       1  UNL1        0.1552
      5 C          60.0903   89.3576    7.8663 C.ar    1  UNL1        0.0480
      6 C          59.7134   87.9133    8.0150 C.ar    1  UNL1        0.0158
      7 C          60.0976   87.1618    9.2549 C.ar    1  UNL1        0.0159
      8 C          60.8587   87.8544   10.3462 C.ar    1  UNL1        0.0506
      9 C          61.2356   89.2986   10.1976 C.ar    1  UNL1        0.0159
     10 C          60.8514   90.0503    8.9576 C.ar    1  UNL1        0.0158
     11 N          58.9377   91.6124    4.1464 N.3     1  UNL1       -0.2660
     12 C          57.8766   91.1348    5.0931 C.3     1  UNL1        0.0941
     13 C          58.2608   90.3832    6.3330 C.3     1  UNL1        0.1081
     14 N          59.7061   90.1092    6.6264 N.pl3   1  UNL1       -0.3046
     15 C          60.7672   90.5868    5.6798 C.3     1  UNL1        0.1081
     16 C          60.3830   91.3384    4.4398 C.3     1  UNL1        0.0941
     17 C          58.5535   92.3640    2.9065 C.3     1  UNL1        0.0993
     18 C          61.7341   93.7618    0.0464 C.ar    1  UNL1        0.1724
     19 C          61.9988   93.7658    1.5228 C.ar    1  UNL1        0.0398
     20 C          60.9387   93.2999    2.4762 C.ar    1  UNL1        0.0004
     21 C          59.6137   92.8299    1.9531 C.ar    1  UNL1       -0.0029
     22 C          59.3489   92.8259    0.4767 C.ar    1  UNL1        0.0371
     23 C          60.4091   93.2918   -0.4767 C.ar    1  UNL1        0.1721
     24 C          64.1624   94.5721   -0.3973 C.3     1  UNL1        0.2526
     25 O          62.7943   94.2277   -0.9070 O.3     1  UNL1       -0.4684
     26 O          60.1444   93.2878   -1.9532 O.3     1  UNL1       -0.4684
     27 C          58.8183   92.8206   -2.4761 C.3     1  UNL1        0.2526
     28 C          62.6453   85.2521   12.7517 C.ar    1  UNL1        0.0671
     29 C          62.0676   83.8929   13.0140 C.ar    1  UNL1        0.0058
     30 C          62.4518   83.1412   14.2539 C.ar    1  UNL1        0.0002
     31 C          63.4137   83.7487   15.2315 C.ar    1  UNL1        0.0013
     32 C          63.9914   85.1080   14.9692 C.ar    1  UNL1        0.0148
     33 C          63.6071   85.8597   13.7293 C.ar    1  UNL1        0.0549
     34 N          64.1848   87.2189   13.4670 N.am    1  UNL1       -0.2802
     35 C          64.0240   88.3109   14.4827 C.2     1  UNL1        0.2510
     36 O          63.2856   88.0437   15.7606 O.2     1  UNL1       -0.2698
     37 H          64.6695   87.3942   12.6282 H       1  UNL1        0.1552
     38 C          64.6017   89.6702   14.2203 C.ar    1  UNL1        0.0728
     39 C          65.3105   90.4082   15.3170 C.ar    1  UNL1        0.1033
     40 N          65.8882   91.7674   15.0547 N.ar    1  UNL1       -0.2437
     41 C          65.7571   92.3886   13.6956 C.ar    1  UNL1        0.0813
     42 C          66.3348   93.7478   13.4333 C.ar    1  UNL1        0.0191
     43 C          66.2037   94.3689   12.0743 C.ar    1  UNL1        0.0015
     44 C          65.4949   93.6308   10.9776 C.ar    1  UNL1        0.0001
     45 C          64.9172   92.2716   11.2399 C.ar    1  UNL1        0.0015
     46 C          65.0483   91.6505   12.5989 C.ar    1  UNL1        0.0178
     47 C          64.4706   90.2912   12.8613 C.ar    1  UNL1        0.0076
@<TRIPOS>BOND
     1    24    25    1
     2    25    18    1
     3    18    19   ar
     4    19    20   ar
     5    20    21   ar
     6    21    17    1
     7    17    11    1
     8    11    12    1
     9    12    13    1
    10    13    14    1
    11    14     5    1
    12     5     6   ar
    13     6     7   ar
    14     7     8   ar
    15     8     1    1
    16     1     2   am
    17     2     3    2
    18     2    28    1
    19    28    29   ar
    20    29    30   ar
    21    30    31   ar
    22    31    32   ar
    23    32    33   ar
    24    33    34    1
    25    34    35   am
    26    35    36    2
    27    35    38    1
    28    38    39   ar
    29    39    40   ar
    30    40    41   ar
    31    41    42   ar
    32    42    43   ar
    33    43    44   ar
    34    44    45   ar
    35    45    46   ar
    36    46    47   ar
    37     8     9   ar
    38     9    10   ar
    39    14    15    1
    40    15    16    1
    41    21    22   ar
    42    22    23   ar
    43    23    26    1
    44    26    27    1
    45    23    18   ar
    46    16    11    1
    47    10     5   ar
    48    33    28   ar
    49    47    38   ar
    50    46    41   ar
    51     1     4    1
    52    34    37    1
