@<TRIPOS>MOLECULE
*****
 33 37 0 0 0
SMALL
GASTEIGER

@<TRIPOS>ATOM
      1 C          61.6446   89.6148   11.8050 C.3     1  UNL1        0.1096
      2 C          60.8407   90.7016   11.1548 C.3     1  UNL1        0.1622
      3 O          60.2755   90.4966    9.7806 O.3     1  UNL1       -0.3502
      4 C          60.5141   89.2048    9.0566 C.3     1  UNL1        0.1637
      5 C          61.3180   88.1180    9.7067 C.3     1  UNL1        0.1257
      6 N          61.8832   88.3230   11.0809 N.am    1  UNL1       -0.2723
      7 C          62.6871   87.2362   11.7310 C.2     1  UNL1        0.2506
      8 O          63.2524   87.4412   13.1053 O.2     1  UNL1       -0.2699
      9 C          62.9257   85.9444   11.0070 C.ar    1  UNL1        0.0726
     10 C          62.8839   85.9059    9.5081 C.ar    1  UNL1        0.0061
     11 C          63.1225   84.6141    8.7840 C.ar    1  UNL1       -0.0001
     12 C          63.4029   83.3608    9.5588 C.ar    1  UNL1       -0.0027
     13 C          63.4447   83.3992   11.0578 C.ar    1  UNL1       -0.0023
     14 C          63.7251   82.1458   11.8326 C.3     1  UNL1        0.0327
     15 C          63.2061   84.6910   11.7819 C.ar    1  UNL1        0.1032
     16 N          63.2479   84.7294   13.2808 N.ar    1  UNL1       -0.1480
     17 N          64.4727   84.9270   14.1239 N.ar    1  UNL1       -0.1447
     18 C          64.0540   84.8967   15.5639 C.ar    1  UNL1        0.1446
     19 C          62.5703   84.6804   15.6108 C.ar    1  UNL1        0.1446
     20 N          62.0722   84.5770   14.1997 N.ar    1  UNL1       -0.1447
     21 C          62.2099   89.8198   13.1792 C.3     1  UNL1        0.0484
     22 C          63.6360   89.7296   15.8170 C.3     1  UNL1        0.0307
     23 C          64.2220   90.5038   14.6737 C.ar    1  UNL1       -0.0256
     24 C          65.5211   91.2328   14.8492 C.ar    1  UNL1       -0.0030
     25 C          66.1072   92.0070   13.7058 C.ar    1  UNL1        0.0206
     26 C          65.3941   92.0520   12.3870 C.ar    1  UNL1        0.1026
     27 C          64.0950   91.3230   12.2114 C.ar    1  UNL1        0.0164
     28 C          63.5090   90.5489   13.3547 C.ar    1  UNL1       -0.0228
     29 N          65.9802   92.8262   11.2435 N.ar    1  UNL1       -0.1478
     30 N          67.1247   92.3894   10.3779 N.ar    1  UNL1       -0.1447
     31 C          67.3765   93.4663    9.3644 C.ar    1  UNL1        0.1446
     32 C          66.3875   94.5685    9.6038 C.ar    1  UNL1        0.1446
     33 N          65.5246   94.1729   10.7651 N.ar    1  UNL1       -0.1447
@<TRIPOS>BOND
     1    22    23    1
     2    23    24   ar
     3    24    25   ar
     4    25    26   ar
     5    26    29    1
     6    29    30   ar
     7    30    31   ar
     8    31    32   ar
     9    32    33   ar
    10    26    27   ar
    11    27    28   ar
    12    28    21    1
    13     1    21    1
    14     1     2    1
    15     2     3    1
    16     3     4    1
    17     4     5    1
    18     5     6    1
    19     6     7   am
    20     7     8    2
    21     7     9    1
    22     9    10   ar
    23    10    11   ar
    24    11    12   ar
    25    12    13   ar
    26    13    14    1
    27    13    15   ar
    28    15    16    1
    29    16    17   ar
    30    17    18   ar
    31    18    19   ar
    32    19    20   ar
    33    28    23   ar
    34     6     1    1
    35    15     9   ar
    36    20    16   ar
    37    33    29   ar
@<TRIPOS>MOLECULE
*****
 33 37 0 0 0
SMALL
GASTEIGER

@<TRIPOS>ATOM
      1 C          61.3569   88.8597   11.4134 C.3     1  UNL1        0.1096
      2 C          60.2926   89.5744   10.6346 C.3     1  UNL1        0.1622
      3 O          59.5677   88.8648    9.5296 O.3     1  UNL1       -0.3502
      4 C          59.9070   87.4406    9.2034 C.3     1  UNL1        0.1637
      5 C          60.9713   86.7259    9.9822 C.3     1  UNL1        0.1257
      6 N          61.6963   87.4355   11.0872 N.am    1  UNL1       -0.2723
      7 C          62.7605   86.7208   11.8660 C.2     1  UNL1        0.2506
      8 O          63.4855   87.4303   12.9710 O.2     1  UNL1       -0.2699
      9 C          63.0999   85.2966   11.5398 C.ar    1  UNL1        0.0726
     10 C          63.2163   84.8621   10.1089 C.ar    1  UNL1        0.0061
     11 C          63.5557   83.4379    9.7827 C.ar    1  UNL1       -0.0001
     12 C          63.7786   82.4481   10.8874 C.ar    1  UNL1       -0.0027
     13 C          63.6621   82.8825   12.3185 C.ar    1  UNL1       -0.0023
     14 C          63.8850   81.8927   13.4232 C.3     1  UNL1        0.0327
     15 C          63.3228   84.3067   12.6447 C.ar    1  UNL1        0.1032
     16 N          63.2063   84.7412   14.0756 N.ar    1  UNL1       -0.1480
     17 N          61.9665   84.6795   14.9177 N.ar    1  UNL1       -0.1447
     18 C          62.3032   85.2138   16.2783 C.ar    1  UNL1        0.1446
     19 C          63.7511   85.6056   16.2771 C.ar    1  UNL1        0.1446
     20 N          64.3093   85.3135   14.9158 N.ar    1  UNL1       -0.1447
     21 C          62.0819   89.5693   12.5184 C.3     1  UNL1        0.0484
     22 C          62.3927   90.6365    9.7319 C.3     1  UNL1        0.0307
     23 C          63.3620   91.0415   10.8026 C.ar    1  UNL1       -0.0256
     24 C          64.4867   91.9801   10.4801 C.ar    1  UNL1       -0.0030
     25 C          65.4560   92.3851   11.5509 C.ar    1  UNL1        0.0206
     26 C          65.3006   91.8515   12.9441 C.ar    1  UNL1        0.1026
     27 C          64.1759   90.9129   13.2666 C.ar    1  UNL1        0.0164
     28 C          63.2066   90.5079   12.1959 C.ar    1  UNL1       -0.0228
     29 N          66.2699   92.2565   14.0149 N.ar    1  UNL1       -0.1478
     30 N          65.9214   92.6205   15.4277 N.ar    1  UNL1       -0.1447
     31 C          67.1939   92.9575   16.1468 C.ar    1  UNL1        0.1446
     32 C          68.3288   92.8018   15.1784 C.ar    1  UNL1        0.1446
     33 N          67.7577   92.3685   13.8608 N.ar    1  UNL1       -0.1447
@<TRIPOS>BOND
     1    22    23    1
     2    23    24   ar
     3    24    25   ar
     4    25    26   ar
     5    26    29    1
     6    29    30   ar
     7    30    31   ar
     8    31    32   ar
     9    32    33   ar
    10    26    27   ar
    11    27    28   ar
    12    28    21    1
    13     1    21    1
    14     1     2    1
    15     2     3    1
    16     3     4    1
    17     4     5    1
    18     5     6    1
    19     6     7   am
    20     7     8    2
    21     7     9    1
    22     9    10   ar
    23    10    11   ar
    24    11    12   ar
    25    12    13   ar
    26    13    14    1
    27    13    15   ar
    28    15    16    1
    29    16    17   ar
    30    17    18   ar
    31    18    19   ar
    32    19    20   ar
    33    28    23   ar
    34     6     1    1
    35    15     9   ar
    36    20    16   ar
    37    33    29   ar
@<TRIPOS>MOLECULE
*****
 33 37 0 0 0
SMALL
GASTEIGER

@<TRIPOS>ATOM
      1 C          63.2192   89.7356   14.4029 C.3     1  UNL1        0.1096
      2 C          63.0767   90.5922   15.6261 C.3     1  UNL1        0.1622
      3 O          63.1004   89.9645   16.9882 O.3     1  UNL1       -0.3502
      4 C          63.2666   88.4802   17.1272 C.3     1  UNL1        0.1637
      5 C          63.4091   87.6237   15.9042 C.3     1  UNL1        0.1257
      6 N          63.3854   88.2514   14.5420 N.am    1  UNL1       -0.2723
      7 C          63.5280   87.3948   13.3189 C.2     1  UNL1        0.2506
      8 O          63.5043   88.0225   11.9567 O.2     1  UNL1       -0.2699
      9 C          63.6942   85.9105   13.4579 C.ar    1  UNL1        0.0726
     10 C          64.4593   85.3470   14.6185 C.ar    1  UNL1        0.0061
     11 C          64.6255   83.8627   14.7575 C.ar    1  UNL1       -0.0001
     12 C          64.0266   82.9420   13.7360 C.ar    1  UNL1       -0.0027
     13 C          63.2614   83.5056   12.5753 C.ar    1  UNL1       -0.0023
     14 C          62.6625   82.5849   11.5538 C.3     1  UNL1        0.0327
     15 C          63.0952   84.9898   12.4363 C.ar    1  UNL1        0.1032
     16 N          62.3301   85.5534   11.2758 N.ar    1  UNL1       -0.1480
     17 N          62.7092   85.4360    9.8292 N.ar    1  UNL1       -0.1447
     18 C          61.6649   86.1434    9.0174 C.ar    1  UNL1        0.1446
     19 C          60.6403   86.6979    9.9623 C.ar    1  UNL1        0.1446
     20 N          61.0514   86.3333   11.3580 N.ar    1  UNL1       -0.1447
     21 C          63.1956   90.3633   13.0409 C.3     1  UNL1        0.0484
     22 C          63.2972   91.3836   10.2215 C.3     1  UNL1        0.0307
     23 C          64.3728   91.7631   11.1956 C.ar    1  UNL1       -0.0256
     24 C          65.4992   92.6528   10.7601 C.ar    1  UNL1       -0.0030
     25 C          66.5749   93.0323   11.7343 C.ar    1  UNL1        0.0206
     26 C          66.5240   92.5222   13.1439 C.ar    1  UNL1        0.1026
     27 C          65.3976   91.6325   13.5795 C.ar    1  UNL1        0.0164
     28 C          64.3220   91.2530   12.6053 C.ar    1  UNL1       -0.0228
     29 N          67.5997   92.9017   14.1182 N.ar    1  UNL1       -0.1478
     30 N          69.0238   92.4317   14.0863 N.ar    1  UNL1       -0.1447
     31 C          69.7444   93.0574   15.2437 C.ar    1  UNL1        0.1446
     32 C          68.7655   93.9140   15.9908 C.ar    1  UNL1        0.1446
     33 N          67.4400   93.8178   15.2952 N.ar    1  UNL1       -0.1447
@<TRIPOS>BOND
     1    22    23    1
     2    23    24   ar
     3    24    25   ar
     4    25    26   ar
     5    26    29    1
     6    29    30   ar
     7    30    31   ar
     8    31    32   ar
     9    32    33   ar
    10    26    27   ar
    11    27    28   ar
    12    28    21    1
    13     1    21    1
    14     1     2    1
    15     2     3    1
    16     3     4    1
    17     4     5    1
    18     5     6    1
    19     6     7   am
    20     7     8    2
    21     7     9    1
    22     9    10   ar
    23    10    11   ar
    24    11    12   ar
    25    12    13   ar
    26    13    14    1
    27    13    15   ar
    28    15    16    1
    29    16    17   ar
    30    17    18   ar
    31    18    19   ar
    32    19    20   ar
    33    28    23   ar
    34     6     1    1
    35    15     9   ar
    36    20    16   ar
    37    33    29   ar
