@<TRIPOS>MOLECULE
*****
 36 39 0 0 0
SMALL
GASTEIGER

@<TRIPOS>ATOM
      1 N          62.9868   90.8918   11.7382 N.am    1  UNL1       -0.2438
      2 C          63.4196   91.5987   10.4880 C.3     1  UNL1        0.1009
      3 C          64.5946   92.5304   10.5218 C.3     1  UNL1        0.0662
      4 C          65.3369   92.7552   11.8057 C.3     1  UNL1        0.1600
      5 O          64.9041   92.0483   13.0559 O.3     1  UNL1       -0.4374
      6 C          63.7290   91.1166   13.0222 C.2     1  UNL1        0.4051
      7 O          63.2962   90.4097   14.2723 O.2     1  UNL1       -0.2262
      8 C          66.1223   93.6479   10.8911 C.ar    1  UNL1        0.0140
      9 C          66.0494   95.1374   11.0523 C.ar    1  UNL1        0.0014
     10 C          66.8347   96.0300   10.1377 C.ar    1  UNL1        0.0294
     11 C          67.6929   95.4331    9.0619 C.ar    1  UNL1        0.1401
     12 F          68.4782   96.3258    8.1473 F       1  UNL1       -0.2042
     13 C          67.7657   93.9436    8.9007 C.ar    1  UNL1        0.0294
     14 C          66.9804   93.0509    9.8153 C.ar    1  UNL1        0.0014
     15 C          60.4173   90.5122   11.6781 C.3     1  UNL1        0.0265
     16 C          61.8117   89.9601   11.7044 C.3     1  UNL1        0.1011
     17 C          62.0311   88.4762   11.6969 C.ar    1  UNL1       -0.0042
     18 C          61.1423   87.5908   10.8747 C.ar    1  UNL1       -0.0027
     19 C          61.3617   86.1070   10.8673 C.ar    1  UNL1       -0.0002
     20 C          62.4699   85.5086   11.6820 C.ar    1  UNL1        0.0021
     21 C          63.3587   86.3940   12.5042 C.ar    1  UNL1       -0.0002
     22 C          63.1393   87.8778   12.5117 C.ar    1  UNL1       -0.0027
     23 C          62.6893   84.0247   11.6745 C.ar    1  UNL1        0.0276
     24 C          62.2624   83.1975   12.8507 C.ar    1  UNL1        0.0045
     25 C          62.4818   81.7136   12.8433 C.ar    1  UNL1        0.0298
     26 C          63.1281   81.0569   11.6595 C.ar    1  UNL1        0.1424
     27 F          63.3475   79.5731   11.6520 F       1  UNL1       -0.2041
     28 C          63.5549   81.8842   10.4833 C.ar    1  UNL1        0.0592
     29 C          63.3355   83.3680   10.4908 C.ar    1  UNL1        0.1423
     30 F          63.7624   84.1953    9.3146 F       1  UNL1       -0.2041
     31 C          66.3520   93.2900   12.7720 C.3     1  UNL1        0.0714
     32 C          67.0325   92.3626   13.7346 C.3     1  UNL1        0.0922
     33 C          67.7324   91.6894   12.5914 C.3     1  UNL1        0.0294
     34 C          66.3326   93.0357   14.8779 C.3     1  UNL1        0.0294
     35 O          67.7131   91.4352   14.6972 O.3     1  UNL1       -0.3866
     36 H          68.2865   90.8249   14.2077 H       1  UNL1        0.2102
@<TRIPOS>BOND
     1    16    15    1
     2    16    17    1
     3    17    18   ar
     4    18    19   ar
     5    19    20   ar
     6    20    23    1
     7    23    24   ar
     8    24    25   ar
     9    25    26   ar
    10    26    27    1
    11    26    28   ar
    12    28    29   ar
    13    29    30    1
    14    20    21   ar
    15    21    22   ar
    16    16     1    1
    17     1     2    1
    18     2     3    1
    19     3     4    1
    20     4    31    1
    21    31    32    1
    22    32    33    1
    23    32    34    1
    24    32    35    1
    25     4     8    1
    26     8     9   ar
    27     9    10   ar
    28    10    11   ar
    29    11    12    1
    30    11    13   ar
    31    13    14   ar
    32     4     5    1
    33     5     6    1
    34     6     7    2
    35    22    17   ar
    36     6     1   am
    37    29    23   ar
    38    14     8   ar
    39    35    36    1
@<TRIPOS>MOLECULE
*****
 36 39 0 0 0
SMALL
GASTEIGER

@<TRIPOS>ATOM
      1 N          63.4204   90.5033   11.9200 N.am    1  UNL1       -0.2438
      2 C          64.1499   90.3182   13.2175 C.3     1  UNL1        0.1009
      3 C          65.3324   91.1817   13.5430 C.3     1  UNL1        0.0662
      4 C          65.7855   92.2304   12.5709 C.3     1  UNL1        0.1600
      5 O          65.0561   92.4156   11.2733 O.3     1  UNL1       -0.4374
      6 C          63.8735   91.5520   10.9478 C.2     1  UNL1        0.4051
      7 O          63.1441   91.7372    9.6503 O.2     1  UNL1       -0.2262
      8 C          66.7940   92.4340   13.6625 C.ar    1  UNL1        0.0140
      9 C          68.1964   91.9300   13.4915 C.ar    1  UNL1        0.0014
     10 C          69.2048   92.1336   14.5832 C.ar    1  UNL1        0.0294
     11 C          68.8108   92.8413   15.8457 C.ar    1  UNL1        0.1401
     12 F          69.8192   93.0449   16.9373 F       1  UNL1       -0.2042
     13 C          67.4084   93.3453   16.0167 C.ar    1  UNL1        0.0294
     14 C          66.3999   93.1417   14.9250 C.ar    1  UNL1        0.0014
     15 C          60.9598   90.2658   11.1206 C.3     1  UNL1        0.0265
     16 C          62.2379   89.6398   11.5945 C.3     1  UNL1        0.1011
     17 C          62.3334   88.1502   11.7431 C.ar    1  UNL1       -0.0042
     18 C          61.4874   87.2553   10.8867 C.ar    1  UNL1       -0.0027
     19 C          61.5830   85.7658   11.0353 C.ar    1  UNL1       -0.0002
     20 C          62.5246   85.1711   12.0402 C.ar    1  UNL1        0.0021
     21 C          63.3706   86.0660   12.8965 C.ar    1  UNL1       -0.0002
     22 C          63.2750   87.5556   12.7479 C.ar    1  UNL1       -0.0027
     23 C          62.6201   83.6815   12.1887 C.ar    1  UNL1        0.0276
     24 C          63.0101   82.8342   11.0140 C.ar    1  UNL1        0.0045
     25 C          63.1056   81.3445   11.1625 C.ar    1  UNL1        0.0298
     26 C          62.8112   80.7024   12.4858 C.ar    1  UNL1        0.1424
     27 F          62.9067   79.2128   12.6343 F       1  UNL1       -0.2041
     28 C          62.4212   81.5498   13.6605 C.ar    1  UNL1        0.0592
     29 C          62.3257   83.0393   13.5119 C.ar    1  UNL1        0.1423
     30 F          61.9357   83.8868   14.6866 F       1  UNL1       -0.2041
     31 C          66.5889   93.3498   11.9779 C.3     1  UNL1        0.0714
     32 C          66.5097   93.6323   10.5069 C.3     1  UNL1        0.0922
     33 C          65.6761   94.8479   10.7852 C.3     1  UNL1        0.0294
     34 C          67.3434   92.4168   10.2286 C.3     1  UNL1        0.0294
     35 O          66.4306   93.9150    9.0359 O.3     1  UNL1       -0.3866
     36 H          65.9053   94.7170    8.8886 H       1  UNL1        0.2102
@<TRIPOS>BOND
     1    16    15    1
     2    16    17    1
     3    17    18   ar
     4    18    19   ar
     5    19    20   ar
     6    20    23    1
     7    23    24   ar
     8    24    25   ar
     9    25    26   ar
    10    26    27    1
    11    26    28   ar
    12    28    29   ar
    13    29    30    1
    14    20    21   ar
    15    21    22   ar
    16    16     1    1
    17     1     2    1
    18     2     3    1
    19     3     4    1
    20     4    31    1
    21    31    32    1
    22    32    33    1
    23    32    34    1
    24    32    35    1
    25     4     8    1
    26     8     9   ar
    27     9    10   ar
    28    10    11   ar
    29    11    12    1
    30    11    13   ar
    31    13    14   ar
    32     4     5    1
    33     5     6    1
    34     6     7    2
    35    22    17   ar
    36     6     1   am
    37    29    23   ar
    38    14     8   ar
    39    35    36    1
@<TRIPOS>MOLECULE
*****
 36 39 0 0 0
SMALL
GASTEIGER

@<TRIPOS>ATOM
      1 N          62.3974   87.8923   12.2215 N.am    1  UNL1       -0.2438
      2 C          62.0714   86.8446   11.1988 C.3     1  UNL1        0.1009
      3 C          62.5692   85.4410   11.3781 C.3     1  UNL1        0.0662
      4 C          63.3930   85.0851   12.5800 C.3     1  UNL1        0.1600
      5 O          63.7190   86.1329   13.6028 O.3     1  UNL1       -0.4374
      6 C          63.2212   87.5364   13.4236 C.2     1  UNL1        0.4051
      7 O          63.5472   88.5842   14.4463 O.2     1  UNL1       -0.2262
      8 C          63.3477   83.7531   11.8917 C.ar    1  UNL1        0.0140
      9 C          64.1160   83.5388   10.6214 C.ar    1  UNL1        0.0014
     10 C          64.0706   82.2068    9.9330 C.ar    1  UNL1        0.0294
     11 C          63.2570   81.0892   10.5151 C.ar    1  UNL1        0.1401
     12 F          63.2116   79.7572    9.8268 F       1  UNL1       -0.2042
     13 C          62.4887   81.3034   11.7855 C.ar    1  UNL1        0.0294
     14 C          62.5340   82.6355   12.4738 C.ar    1  UNL1        0.0014
     15 C          60.4585   89.6196   12.3036 C.3     1  UNL1        0.0265
     16 C          61.8996   89.2959   12.0423 C.3     1  UNL1        0.1011
     17 C          62.8430   90.3757   11.6017 C.ar    1  UNL1       -0.0042
     18 C          63.8346   90.9469   12.5715 C.ar    1  UNL1       -0.0027
     19 C          64.7779   92.0267   12.1309 C.ar    1  UNL1       -0.0002
     20 C          64.7296   92.5353   10.7206 C.ar    1  UNL1        0.0021
     21 C          63.7381   91.9641    9.7508 C.ar    1  UNL1       -0.0002
     22 C          62.7947   90.8843   10.1914 C.ar    1  UNL1       -0.0027
     23 C          65.6730   93.6151   10.2800 C.ar    1  UNL1        0.0276
     24 C          65.2520   95.0531   10.3493 C.ar    1  UNL1        0.0045
     25 C          66.1954   96.1330    9.9088 C.ar    1  UNL1        0.0298
     26 C          67.5598   95.7747    9.3989 C.ar    1  UNL1        0.1424
     27 F          68.5032   96.8545    8.9583 F       1  UNL1       -0.2041
     28 C          67.9808   94.3366    9.3296 C.ar    1  UNL1        0.0592
     29 C          67.0375   93.2569    9.7701 C.ar    1  UNL1        0.1423
     30 F          67.4585   91.8188    9.7008 F       1  UNL1       -0.2041
     31 C          64.2011   84.2666   13.5430 C.3     1  UNL1        0.0714
     32 C          64.3632   84.7225   14.9628 C.3     1  UNL1        0.0922
     33 C          62.9641   84.2748   15.2663 C.3     1  UNL1        0.0294
     34 C          65.7622   85.1703   14.6592 C.3     1  UNL1        0.0294
     35 O          64.5252   85.1784   16.3826 O.3     1  UNL1       -0.3866
     36 H          63.7071   85.0037   16.8736 H       1  UNL1        0.2102
@<TRIPOS>BOND
     1    16    15    1
     2    16    17    1
     3    17    18   ar
     4    18    19   ar
     5    19    20   ar
     6    20    23    1
     7    23    24   ar
     8    24    25   ar
     9    25    26   ar
    10    26    27    1
    11    26    28   ar
    12    28    29   ar
    13    29    30    1
    14    20    21   ar
    15    21    22   ar
    16    16     1    1
    17     1     2    1
    18     2     3    1
    19     3     4    1
    20     4    31    1
    21    31    32    1
    22    32    33    1
    23    32    34    1
    24    32    35    1
    25     4     8    1
    26     8     9   ar
    27     9    10   ar
    28    10    11   ar
    29    11    12    1
    30    11    13   ar
    31    13    14   ar
    32     4     5    1
    33     5     6    1
    34     6     7    2
    35    22    17   ar
    36     6     1   am
    37    29    23   ar
    38    14     8   ar
    39    35    36    1
