@<TRIPOS>MOLECULE
*****
 16 17 0 0 0
SMALL
GASTEIGER

@<TRIPOS>ATOM
      1 C          66.2179   93.4722   12.3973 C.ar    1  UNL1        0.1386
      2 C          65.1771   92.5788   11.7902 C.ar    1  UNL1        0.0384
      3 C          64.5365   91.5038   12.6173 C.ar    1  UNL1        0.0223
      4 C          64.9367   91.3223   14.0514 C.ar    1  UNL1        0.0848
      5 C          65.9774   92.2157   14.6585 C.ar    1  UNL1        0.0223
      6 C          66.6180   93.2907   13.8314 C.ar    1  UNL1        0.0384
      7 N          64.2961   90.2473   14.8785 N.ar    1  UNL1       -0.2079
      8 C          64.3202   88.7765   14.5847 C.ar    1  UNL1        0.2016
      9 N          63.5579   88.0746   15.6692 N.ar    1  UNL1       -0.2004
     10 C          63.0628   89.1115   16.6334 C.ar    1  UNL1        0.2214
     11 N          63.5190   90.4543   16.1447 N.ar    1  UNL1       -0.1409
     12 O          66.8584   94.5472   11.5702 O.3     1  UNL1       -0.4755
     13 C          66.4210   94.7630   10.1517 C.3     1  UNL1        0.2054
     14 C          67.3138   94.3477    9.0201 C.3     1  UNL1        0.0473
     15 C          68.1957   91.9768    9.6127 C.3     1  UNL1        0.0001
     16 C          68.4600   93.4137    9.2730 C.3     1  UNL1        0.0038
@<TRIPOS>BOND
     1    15    16    1
     2    16    14    1
     3    14    13    1
     4    13    12    1
     5    12     1    1
     6     1     2   ar
     7     2     3   ar
     8     3     4   ar
     9     4     7    1
    10     7     8   ar
    11     8     9   ar
    12     9    10   ar
    13    10    11   ar
    14     4     5   ar
    15     5     6   ar
    16     6     1   ar
    17    11     7   ar
@<TRIPOS>MOLECULE
*****
 16 17 0 0 0
SMALL
GASTEIGER

@<TRIPOS>ATOM
      1 C          63.5575   83.7387   10.7596 C.ar    1  UNL1        0.1386
      2 C          63.6803   84.1046    9.3102 C.ar    1  UNL1        0.0384
      3 C          62.8516   85.2201    8.7454 C.ar    1  UNL1        0.0223
      4 C          61.9003   85.9698    9.6302 C.ar    1  UNL1        0.0848
      5 C          61.7776   85.6040   11.0797 C.ar    1  UNL1        0.0223
      6 C          62.6062   84.4884   11.6444 C.ar    1  UNL1        0.0384
      7 N          61.0716   87.0854    9.0655 N.ar    1  UNL1       -0.2079
      8 C          61.0853   88.5134    9.5244 C.ar    1  UNL1        0.2016
      9 N          60.1060   89.2794    8.6852 N.ar    1  UNL1       -0.2004
     10 C          59.4870   88.3248    7.7077 C.ar    1  UNL1        0.2214
     11 N          60.0838   86.9688    7.9427 N.ar    1  UNL1       -0.1409
     12 O          64.3862   82.6232   11.3244 O.3     1  UNL1       -0.4755
     13 C          64.2187   82.2162   12.7583 C.3     1  UNL1        0.2054
     14 C          63.1635   81.2194   13.1367 C.3     1  UNL1        0.0473
     15 C          60.7857   80.8105   14.1005 C.3     1  UNL1        0.0001
     16 C          62.0469   81.6211   14.0543 C.3     1  UNL1        0.0038
@<TRIPOS>BOND
     1    15    16    1
     2    16    14    1
     3    14    13    1
     4    13    12    1
     5    12     1    1
     6     1     2   ar
     7     2     3   ar
     8     3     4   ar
     9     4     7    1
    10     7     8   ar
    11     8     9   ar
    12     9    10   ar
    13    10    11   ar
    14     4     5   ar
    15     5     6   ar
    16     6     1   ar
    17    11     7   ar
@<TRIPOS>MOLECULE
*****
 16 17 0 0 0
SMALL
GASTEIGER

@<TRIPOS>ATOM
      1 C          63.0707   84.5785    9.9259 C.ar    1  UNL1        0.1386
      2 C          62.5948   84.8868   11.3145 C.ar    1  UNL1        0.0384
      3 C          61.8256   86.1467   11.5813 C.ar    1  UNL1        0.0223
      4 C          61.5323   87.0982   10.4595 C.ar    1  UNL1        0.0848
      5 C          62.0082   86.7898    9.0708 C.ar    1  UNL1        0.0223
      6 C          62.7774   85.5300    8.8040 C.ar    1  UNL1        0.0384
      7 N          60.7632   88.3580   10.7263 N.ar    1  UNL1       -0.2079
      8 C          60.6682   89.5434    9.8121 C.ar    1  UNL1        0.2016
      9 N          59.8003   90.5717   10.4749 N.ar    1  UNL1       -0.2004
     10 C          59.3588   90.0218   11.7988 C.ar    1  UNL1        0.2214
     11 N          59.9539   88.6536   11.9541 N.ar    1  UNL1       -0.1409
     12 O          63.8398   83.3186    9.6591 O.3     1  UNL1       -0.4755
     13 C          64.1476   82.3753   10.7840 C.3     1  UNL1        0.2054
     14 C          63.1083   81.3993   11.2499 C.3     1  UNL1        0.0473
     15 C          62.1577   80.1843   13.3405 C.3     1  UNL1        0.0001
     16 C          62.6210   81.4425   12.6679 C.3     1  UNL1        0.0038
@<TRIPOS>BOND
     1    15    16    1
     2    16    14    1
     3    14    13    1
     4    13    12    1
     5    12     1    1
     6     1     2   ar
     7     2     3   ar
     8     3     4   ar
     9     4     7    1
    10     7     8   ar
    11     8     9   ar
    12     9    10   ar
    13    10    11   ar
    14     4     5   ar
    15     5     6   ar
    16     6     1   ar
    17    11     7   ar
@<TRIPOS>MOLECULE
*****
 16 17 0 0 0
SMALL
GASTEIGER

@<TRIPOS>ATOM
      1 C          62.3608   89.4965   10.6516 C.ar    1  UNL1        0.1386
      2 C          62.7848   89.1235   12.0412 C.ar    1  UNL1        0.0384
      3 C          63.7199   90.0141   12.8044 C.ar    1  UNL1        0.0223
      4 C          64.2310   91.2776   12.1781 C.ar    1  UNL1        0.0848
      5 C          63.8070   91.6505   10.7884 C.ar    1  UNL1        0.0223
      6 C          62.8719   90.7599   10.0252 C.ar    1  UNL1        0.0384
      7 N          65.1661   92.1681   12.9413 N.ar    1  UNL1       -0.2079
      8 C          66.0063   93.2674   12.3620 C.ar    1  UNL1        0.2016
      9 N          66.7847   93.8944   13.4805 N.ar    1  UNL1       -0.2004
     10 C          66.4254   93.1826   14.7511 C.ar    1  UNL1        0.2214
     11 N          65.4251   92.1157   14.4178 N.ar    1  UNL1       -0.1409
     12 O          61.4257   88.6059    9.8883 O.3     1  UNL1       -0.4755
     13 C          60.1989   89.1818    9.2455 C.3     1  UNL1        0.2054
     14 C          59.6756   88.5947    7.9682 C.3     1  UNL1        0.0473
     15 C          60.1516   86.0523    7.7232 C.3     1  UNL1        0.0001
     16 C          59.1840   87.1778    7.9401 C.3     1  UNL1        0.0038
@<TRIPOS>BOND
     1    15    16    1
     2    16    14    1
     3    14    13    1
     4    13    12    1
     5    12     1    1
     6     1     2   ar
     7     2     3   ar
     8     3     4   ar
     9     4     7    1
    10     7     8   ar
    11     8     9   ar
    12     9    10   ar
    13    10    11   ar
    14     4     5   ar
    15     5     6   ar
    16     6     1   ar
    17    11     7   ar
@<TRIPOS>MOLECULE
*****
 16 17 0 0 0
SMALL
GASTEIGER

@<TRIPOS>ATOM
      1 C          62.4200   88.9220   11.5021 C.ar    1  UNL1        0.1386
      2 C          63.1844   88.9639   12.7920 C.ar    1  UNL1        0.0384
      3 C          64.0876   90.1236   13.0912 C.ar    1  UNL1        0.0223
      4 C          64.2263   91.2413   12.1006 C.ar    1  UNL1        0.0848
      5 C          63.4618   91.1994   10.8107 C.ar    1  UNL1        0.0223
      6 C          62.5587   90.0398   10.5115 C.ar    1  UNL1        0.0384
      7 N          65.1294   92.4010   12.3999 N.ar    1  UNL1       -0.2079
      8 C          65.6474   93.3952   11.4033 C.ar    1  UNL1        0.2016
      9 N          66.5113   94.3787   12.1358 N.ar    1  UNL1       -0.2004
     10 C          66.5271   93.9923   13.5851 C.ar    1  UNL1        0.2214
     11 N          65.6731   92.7701   13.7483 N.ar    1  UNL1       -0.1409
     12 O          61.5169   87.7624   11.2028 O.3     1  UNL1       -0.4755
     13 C          62.0719   86.5258   10.5603 C.3     1  UNL1        0.2054
     14 C          62.0711   86.3920    9.0663 C.3     1  UNL1        0.0473
     15 C          62.5445   84.8379    7.0387 C.3     1  UNL1        0.0001
     16 C          62.9055   85.3336    8.4077 C.3     1  UNL1        0.0038
@<TRIPOS>BOND
     1    15    16    1
     2    16    14    1
     3    14    13    1
     4    13    12    1
     5    12     1    1
     6     1     2   ar
     7     2     3   ar
     8     3     4   ar
     9     4     7    1
    10     7     8   ar
    11     8     9   ar
    12     9    10   ar
    13    10    11   ar
    14     4     5   ar
    15     5     6   ar
    16     6     1   ar
    17    11     7   ar
@<TRIPOS>MOLECULE
*****
 16 17 0 0 0
SMALL
GASTEIGER

@<TRIPOS>ATOM
      1 C          63.0966   89.7498   12.6114 C.ar    1  UNL1        0.1386
      2 C          63.5767   91.0049   11.9450 C.ar    1  UNL1        0.0384
      3 C          64.7381   91.7614   12.5184 C.ar    1  UNL1        0.0223
      4 C          65.4194   91.2628   13.7582 C.ar    1  UNL1        0.0848
      5 C          64.9393   90.0078   14.4247 C.ar    1  UNL1        0.0223
      6 C          63.7778   89.2512   13.8512 C.ar    1  UNL1        0.0384
      7 N          66.5808   92.0194   14.3317 N.ar    1  UNL1       -0.2079
      8 C          67.9984   91.9601   13.8450 C.ar    1  UNL1        0.2016
      9 N          68.8223   92.8721   14.7050 N.ar    1  UNL1       -0.2004
     10 C          67.9138   93.4950   15.7232 C.ar    1  UNL1        0.2214
     11 N          66.5285   92.9680   15.4925 N.ar    1  UNL1       -0.1409
     12 O          61.9352   88.9933   12.0380 O.3     1  UNL1       -0.4755
     13 C          62.1742   87.8756   11.0666 C.3     1  UNL1        0.2054
     14 C          61.0905   87.4653   10.1140 C.3     1  UNL1        0.0473
     15 C          62.5796   85.7985    8.7894 C.3     1  UNL1        0.0001
     16 C          61.2340   86.2055    9.3125 C.3     1  UNL1        0.0038
@<TRIPOS>BOND
     1    15    16    1
     2    16    14    1
     3    14    13    1
     4    13    12    1
     5    12     1    1
     6     1     2   ar
     7     2     3   ar
     8     3     4   ar
     9     4     7    1
    10     7     8   ar
    11     8     9   ar
    12     9    10   ar
    13    10    11   ar
    14     4     5   ar
    15     5     6   ar
    16     6     1   ar
    17    11     7   ar
@<TRIPOS>MOLECULE
*****
 16 17 0 0 0
SMALL
GASTEIGER

@<TRIPOS>ATOM
      1 C          62.3225   90.0131   11.7838 C.ar    1  UNL1        0.1386
      2 C          63.3172   90.4144   12.8324 C.ar    1  UNL1        0.0384
      3 C          64.4153   91.3788   12.4945 C.ar    1  UNL1        0.0223
      4 C          64.5188   91.9418   11.1081 C.ar    1  UNL1        0.0848
      5 C          63.5241   91.5404   10.0595 C.ar    1  UNL1        0.0223
      6 C          62.4260   90.5761   10.3974 C.ar    1  UNL1        0.0384
      7 N          65.6169   92.9061   10.7702 N.ar    1  UNL1       -0.2079
      8 C          67.0189   92.5440   10.3788 C.ar    1  UNL1        0.2016
      9 N          67.7743   93.8160   10.1311 N.ar    1  UNL1       -0.2004
     10 C          66.8391   94.9643   10.3694 C.ar    1  UNL1        0.2214
     11 N          65.5058   94.4020   10.7644 N.ar    1  UNL1       -0.1409
     12 O          61.2244   89.0487   12.1217 O.3     1  UNL1       -0.4755
     13 C          60.6105   88.2040   11.0450 C.3     1  UNL1        0.2054
     14 C          61.1099   86.8093   10.8096 C.3     1  UNL1        0.0473
     15 C          60.3117   86.2952    8.3912 C.3     1  UNL1        0.0001
     16 C          61.4071   86.3445    9.4147 C.3     1  UNL1        0.0038
@<TRIPOS>BOND
     1    15    16    1
     2    16    14    1
     3    14    13    1
     4    13    12    1
     5    12     1    1
     6     1     2   ar
     7     2     3   ar
     8     3     4   ar
     9     4     7    1
    10     7     8   ar
    11     8     9   ar
    12     9    10   ar
    13    10    11   ar
    14     4     5   ar
    15     5     6   ar
    16     6     1   ar
    17    11     7   ar
@<TRIPOS>MOLECULE
*****
 16 17 0 0 0
SMALL
GASTEIGER

@<TRIPOS>ATOM
      1 C          61.8975   89.1366   11.4197 C.ar    1  UNL1        0.1386
      2 C          62.1024   90.0374   10.2379 C.ar    1  UNL1        0.0384
      3 C          63.1305   91.1281   10.2956 C.ar    1  UNL1        0.0223
      4 C          63.9538   91.3181   11.5350 C.ar    1  UNL1        0.0848
      5 C          63.7489   90.4173   12.7167 C.ar    1  UNL1        0.0223
      6 C          62.7208   89.3266   12.6591 C.ar    1  UNL1        0.0384
      7 N          64.9819   92.4088   11.5926 N.ar    1  UNL1       -0.2079
      8 C          65.7810   92.8044   12.7989 C.ar    1  UNL1        0.2016
      9 N          66.6844   93.9355   12.4059 N.ar    1  UNL1       -0.2004
     10 C          66.4437   94.2389   10.9568 C.ar    1  UNL1        0.2214
     11 N          65.3915   93.2954   10.4542 N.ar    1  UNL1       -0.1409
     12 O          60.8694   88.0459   11.3620 O.3     1  UNL1       -0.4755
     13 C          61.2434   86.6894   10.8426 C.3     1  UNL1        0.2054
     14 C          61.3188   86.4469    9.3643 C.3     1  UNL1        0.0473
     15 C          59.6512   87.8418    7.9418 C.3     1  UNL1        0.0001
     16 C          60.0770   86.5278    8.5267 C.3     1  UNL1        0.0038
@<TRIPOS>BOND
     1    15    16    1
     2    16    14    1
     3    14    13    1
     4    13    12    1
     5    12     1    1
     6     1     2   ar
     7     2     3   ar
     8     3     4   ar
     9     4     7    1
    10     7     8   ar
    11     8     9   ar
    12     9    10   ar
    13    10    11   ar
    14     4     5   ar
    15     5     6   ar
    16     6     1   ar
    17    11     7   ar
@<TRIPOS>MOLECULE
*****
 16 17 0 0 0
SMALL
GASTEIGER

@<TRIPOS>ATOM
      1 C          62.2591   89.1421   11.4513 C.ar    1  UNL1        0.1386
      2 C          62.3962   90.0981   10.3036 C.ar    1  UNL1        0.0384
      3 C          63.3445   91.2562   10.4014 C.ar    1  UNL1        0.0223
      4 C          64.1556   91.4583   11.6468 C.ar    1  UNL1        0.0848
      5 C          64.0185   90.5023   12.7945 C.ar    1  UNL1        0.0223
      6 C          63.0702   89.3442   12.6967 C.ar    1  UNL1        0.0384
      7 N          65.1039   92.6164   11.7446 N.ar    1  UNL1       -0.2079
      8 C          65.9370   92.9754   12.9392 C.ar    1  UNL1        0.2016
      9 N          66.7336   94.1997   12.5978 N.ar    1  UNL1       -0.2004
     10 C          66.3928   94.5974   11.1922 C.ar    1  UNL1        0.2214
     11 N          65.3857   93.6189   10.6649 N.ar    1  UNL1       -0.1409
     12 O          61.3108   87.9840   11.3535 O.3     1  UNL1       -0.4755
     13 C          61.6300   86.8271   10.4538 C.3     1  UNL1        0.2054
     14 C          61.7848   85.4503   11.0287 C.3     1  UNL1        0.0473
     15 C          63.2906   83.8164   12.3752 C.3     1  UNL1        0.0001
     16 C          62.7759   85.2034   12.1273 C.3     1  UNL1        0.0038
@<TRIPOS>BOND
     1    15    16    1
     2    16    14    1
     3    14    13    1
     4    13    12    1
     5    12     1    1
     6     1     2   ar
     7     2     3   ar
     8     3     4   ar
     9     4     7    1
    10     7     8   ar
    11     8     9   ar
    12     9    10   ar
    13    10    11   ar
    14     4     5   ar
    15     5     6   ar
    16     6     1   ar
    17    11     7   ar
