@<TRIPOS>MOLECULE
*****
 35 39 0 0 0
SMALL
GASTEIGER

@<TRIPOS>ATOM
      1 N          64.3978   90.8773   14.7763 N.ar    1  UNL1       -0.2937
      2 C          64.1578   91.6128   16.0614 C.ar    1  UNL1        0.1798
      3 N          63.6333   90.6307   17.0665 N.ar    1  UNL1       -0.2195
      4 C          63.5492   89.2882   16.4027 C.ar    1  UNL1        0.1483
      5 C          63.1035   87.9467   16.9042 C.ar    1  UNL1        0.1516
      6 N          63.1301   86.7575   15.9903 N.ar    1  UNL1       -0.2031
      7 C          63.6026   86.9099   14.5748 C.ar    1  UNL1        0.2093
      8 N          64.0484   88.2515   14.0733 N.ar    1  UNL1       -0.2003
      9 C          64.0217   89.4406   14.9872 C.ar    1  UNL1        0.1678
     10 C          66.3979   92.4927   11.8684 C.3     1  UNL1        0.0977
     11 C          67.5981   92.5665   12.7650 C.3     1  UNL1        0.0136
     12 C          66.3130   91.9879   13.2784 C.3     1  UNL1        0.0344
     13 C          64.9220   91.4737   13.5037 C.3     1  UNL1        0.1180
     14 C          64.1472   91.6607   12.2330 C.3     1  UNL1        0.1582
     15 O          62.7122   91.2840   12.0118 O.3     1  UNL1       -0.3800
     16 C          65.0593   92.2905   11.2223 C.3     1  UNL1        0.1471
     17 O          64.6966   92.6541    9.8130 O.3     1  UNL1       -0.3814
     18 H          62.4546   91.5106   11.1044 H       1  UNL1        0.2105
     19 H          63.7704   92.4190    9.6466 H       1  UNL1        0.2105
     20 C          67.6708   95.2065    9.2674 C.3     1  UNL1        0.1107
     21 N          67.0096   94.5921   10.4656 N.am    1  UNL1       -0.3026
     22 C          67.0591   93.1070   10.6702 C.2     1  UNL1        0.2240
     23 O          67.7697   92.2362    9.6769 O.2     1  UNL1       -0.2750
     24 H          66.5432   95.1637   11.1175 H       1  UNL1        0.1495
     25 N          62.6310   87.7943   18.3197 N.pl3   1  UNL1       -0.3153
     26 C          62.7321   86.4638   19.0050 C.3     1  UNL1        0.1097
     27 H          62.2545   88.5675   18.7989 H       1  UNL1        0.1483
     28 C          63.6294   85.7208   13.6609 C.1     1  UNL1       -0.0205
     29 C          63.6561   84.5317   12.7470 C.1     1  UNL1       -0.0502
     30 C          63.6828   83.3426   11.8330 C.ar    1  UNL1        0.0718
     31 C          64.3708   83.2687   10.5022 C.ar    1  UNL1        0.0158
     32 C          64.1395   81.8991    9.9362 C.ar    1  UNL1        0.0144
     33 C          63.3085   81.1263   10.9172 C.ar    1  UNL1        0.0644
     34 BR         62.8417   79.7101   10.7545 Br      1  UNL1       -0.0419
     35 S          63.0263   82.0185   12.0896 S.2     1  UNL1       -0.0718
@<TRIPOS>BOND
     1    20    21    1
     2    21    22   am
     3    22    23    2
     4    10    22    1
     5    10    11    1
     6    12    11    1
     7    12    13    1
     8    13     1    1
     9     1     2   ar
    10     2     3   ar
    11     3     4   ar
    12     4     5   ar
    13     5    25    1
    14    25    26    1
    15     5     6   ar
    16     6     7   ar
    17     7    28    1
    18    28    29    3
    19    29    30    1
    20    30    31   ar
    21    31    32   ar
    22    32    33   ar
    23    33    34    1
    24    33    35   ar
    25     7     8   ar
    26     8     9   ar
    27    13    14    1
    28    14    15    1
    29    14    16    1
    30    16    17    1
    31    12    10    1
    32     9     1   ar
    33    16    10    1
    34     9     4   ar
    35    35    30   ar
    36    21    24    1
    37    25    27    1
    38    15    18    1
    39    17    19    1
@<TRIPOS>MOLECULE
*****
 35 39 0 0 0
SMALL
GASTEIGER

@<TRIPOS>ATOM
      1 N          62.5607   90.5115   11.0816 N.ar    1  UNL1       -0.2937
      2 C          61.8670   91.4081   10.0994 C.ar    1  UNL1        0.1798
      3 N          60.9925   90.5543    9.2297 N.ar    1  UNL1       -0.2195
      4 C          61.1457   89.1300    9.6745 C.ar    1  UNL1        0.1483
      5 C          60.5280   87.8537    9.1852 C.ar    1  UNL1        0.1516
      6 N          60.8793   86.5509    9.8404 N.ar    1  UNL1       -0.2031
      7 C          61.8485   86.5244   10.9849 C.ar    1  UNL1        0.2093
      8 N          62.4663   87.8008   11.4743 N.ar    1  UNL1       -0.2003
      9 C          62.1149   89.1035   10.8191 C.ar    1  UNL1        0.1678
     10 C          65.4284   91.9727   13.2510 C.3     1  UNL1        0.0977
     11 C          66.0228   92.5808   12.0154 C.3     1  UNL1        0.0136
     12 C          64.7580   91.7798   11.9231 C.3     1  UNL1        0.0344
     13 C          63.5299   90.9464   12.1406 C.3     1  UNL1        0.1180
     14 C          63.4413   90.6243   13.6029 C.3     1  UNL1        0.1582
     15 O          62.3678   89.8107   14.2630 O.3     1  UNL1       -0.3800
     16 C          64.6146   91.2586   14.2893 C.3     1  UNL1        0.1471
     17 O          64.9205   91.1907   15.7561 O.3     1  UNL1       -0.3814
     18 H          62.5451   89.7530   15.2150 H       1  UNL1        0.2105
     19 H          64.2376   90.6680   16.2049 H       1  UNL1        0.2105
     20 C          68.6933   92.1169   15.5026 C.3     1  UNL1        0.1107
     21 N          67.6443   91.6097   14.5580 N.am    1  UNL1       -0.3026
     22 C          66.4775   92.4799   14.1957 C.2     1  UNL1        0.2240
     23 O          66.3596   93.8573   14.7780 O.2     1  UNL1       -0.2750
     24 H          67.7215   90.7057   14.1758 H       1  UNL1        0.1495
     25 N          59.5588   87.8802    8.0406 N.pl3   1  UNL1       -0.3153
     26 C          58.9795   86.5988    7.5186 C.3     1  UNL1        0.1097
     27 H          59.3029   88.7386    7.6320 H       1  UNL1        0.1483
     28 C          62.1999   85.2217   11.6402 C.1     1  UNL1       -0.0205
     29 C          62.5513   83.9190   12.2954 C.1     1  UNL1       -0.0502
     30 C          62.9027   82.6161   12.9506 C.ar    1  UNL1        0.0718
     31 C          64.1403   82.3372   13.7509 C.ar    1  UNL1        0.0158
     32 C          64.0806   80.9122   14.2154 C.ar    1  UNL1        0.0144
     33 C          62.8060   80.3104   13.7023 C.ar    1  UNL1        0.0644
     34 BR         62.3411   78.9027   13.9307 Br      1  UNL1       -0.0419
     35 S          62.0780   81.3635   12.9206 S.2     1  UNL1       -0.0718
@<TRIPOS>BOND
     1    20    21    1
     2    21    22   am
     3    22    23    2
     4    10    22    1
     5    10    11    1
     6    12    11    1
     7    12    13    1
     8    13     1    1
     9     1     2   ar
    10     2     3   ar
    11     3     4   ar
    12     4     5   ar
    13     5    25    1
    14    25    26    1
    15     5     6   ar
    16     6     7   ar
    17     7    28    1
    18    28    29    3
    19    29    30    1
    20    30    31   ar
    21    31    32   ar
    22    32    33   ar
    23    33    34    1
    24    33    35   ar
    25     7     8   ar
    26     8     9   ar
    27    13    14    1
    28    14    15    1
    29    14    16    1
    30    16    17    1
    31    12    10    1
    32     9     1   ar
    33    16    10    1
    34     9     4   ar
    35    35    30   ar
    36    21    24    1
    37    25    27    1
    38    15    18    1
    39    17    19    1
@<TRIPOS>MOLECULE
*****
 35 39 0 0 0
SMALL
GASTEIGER

@<TRIPOS>ATOM
      1 N          63.2920   93.5780   -0.4141 N.ar    1  UNL1       -0.2937
      2 C          64.1244   93.0593    0.7208 C.ar    1  UNL1        0.1798
      3 N          63.2109   92.7870    1.8790 N.ar    1  UNL1       -0.2195
      4 C          61.8139   93.1375    1.4598 C.ar    1  UNL1        0.1483
      5 C          60.5027   93.0746    2.1855 C.ar    1  UNL1        0.1516
      6 N          59.2415   93.5006    1.4940 N.ar    1  UNL1       -0.2031
      7 C          59.2917   93.9895    0.0768 C.ar    1  UNL1        0.2093
      8 N          60.6030   94.0524   -0.6489 N.ar    1  UNL1       -0.2003
      9 C          61.8640   93.6264    0.0426 C.ar    1  UNL1        0.1678
     10 C          64.3379   93.9420   -4.1341 C.3     1  UNL1        0.0977
     11 C          63.7626   92.5836   -4.4054 C.3     1  UNL1        0.0136
     12 C          63.7076   93.1586   -3.0211 C.3     1  UNL1        0.0344
     13 C          63.7986   93.9782   -1.7681 C.3     1  UNL1        0.1180
     14 C          64.4852   95.2681   -2.1067 C.3     1  UNL1        0.1582
     15 O          64.7856   96.3844   -1.1509 O.3     1  UNL1       -0.3800
     16 C          64.8185   95.2458   -3.5691 C.3     1  UNL1        0.1471
     17 O          65.5108   96.3358   -4.3323 O.3     1  UNL1       -0.3814
     18 H          65.2347   97.1027   -1.6235 H       1  UNL1        0.2105
     19 H          65.7155   97.0704   -3.7329 H       1  UNL1        0.2105
     20 C          66.4887   93.8083   -7.4668 C.3     1  UNL1        0.1107
     21 N          66.0351   93.5466   -6.0611 N.am    1  UNL1       -0.3026
     22 C          64.7916   94.2038   -5.5398 C.2     1  UNL1        0.2240
     23 O          64.0017   95.1226   -6.4240 O.2     1  UNL1       -0.2750
     24 H          66.5535   92.9435   -5.4808 H       1  UNL1        0.1495
     25 N          60.4525   92.5857    3.6028 N.pl3   1  UNL1       -0.3153
     26 C          59.1308   92.2918    4.2484 C.3     1  UNL1        0.1097
     27 H          61.2870   92.4578    4.1092 H       1  UNL1        0.1483
     28 C          58.0306   94.4155   -0.6147 C.1     1  UNL1       -0.0205
     29 C          56.7696   94.8415   -1.3062 C.1     1  UNL1       -0.0502
     30 C          55.5085   95.2676   -1.9977 C.ar    1  UNL1        0.0718
     31 C          54.1874   95.5319   -1.3382 C.ar    1  UNL1        0.0158
     32 C          53.2095   95.9318   -2.4030 C.ar    1  UNL1        0.0144
     33 C          53.9263   95.9146   -3.7207 C.ar    1  UNL1        0.0644
     34 BR         53.3273   96.2492   -5.0546 Br      1  UNL1       -0.0419
     35 S          55.3471   95.5041   -3.4701 S.2     1  UNL1       -0.0718
@<TRIPOS>BOND
     1    20    21    1
     2    21    22   am
     3    22    23    2
     4    10    22    1
     5    10    11    1
     6    12    11    1
     7    12    13    1
     8    13     1    1
     9     1     2   ar
    10     2     3   ar
    11     3     4   ar
    12     4     5   ar
    13     5    25    1
    14    25    26    1
    15     5     6   ar
    16     6     7   ar
    17     7    28    1
    18    28    29    3
    19    29    30    1
    20    30    31   ar
    21    31    32   ar
    22    32    33   ar
    23    33    34    1
    24    33    35   ar
    25     7     8   ar
    26     8     9   ar
    27    13    14    1
    28    14    15    1
    29    14    16    1
    30    16    17    1
    31    12    10    1
    32     9     1   ar
    33    16    10    1
    34     9     4   ar
    35    35    30   ar
    36    21    24    1
    37    25    27    1
    38    15    18    1
    39    17    19    1
@<TRIPOS>MOLECULE
*****
 35 39 0 0 0
SMALL
GASTEIGER

@<TRIPOS>ATOM
      1 N          63.9796   85.2262   13.9859 N.ar    1  UNL1       -0.2937
      2 C          64.8370   85.5548   15.1720 C.ar    1  UNL1        0.1798
      3 N          64.9686   87.0470   15.2497 N.ar    1  UNL1       -0.2195
      4 C          64.1924   87.6407   14.1116 C.ar    1  UNL1        0.1483
      5 C          63.9633   89.0605   13.6857 C.ar    1  UNL1        0.1516
      6 N          63.1229   89.3551   12.4786 N.ar    1  UNL1       -0.2031
      7 C          62.5116   88.2298   11.6975 C.ar    1  UNL1        0.2093
      8 N          62.7408   86.8099   12.1236 N.ar    1  UNL1       -0.2003
      9 C          63.5812   86.5154   13.3306 C.ar    1  UNL1        0.1678
     10 C          63.3089   81.8600   12.1738 C.3     1  UNL1        0.0977
     11 C          64.0177   82.3954   10.9651 C.3     1  UNL1        0.0136
     12 C          63.8786   83.2475   12.1917 C.3     1  UNL1        0.0344
     13 C          63.5890   83.8501   13.5344 C.3     1  UNL1        0.1180
     14 C          62.8404   82.8351   14.3464 C.3     1  UNL1        0.1582
     15 O          62.3509   83.0180   15.7524 O.3     1  UNL1       -0.3800
     16 C          62.6673   81.6051   13.5055 C.3     1  UNL1        0.1471
     17 O          61.9742   80.3421   13.9229 O.3     1  UNL1       -0.3814
     18 H          61.8980   82.2115   16.0446 H       1  UNL1        0.2105
     19 H          61.6483   80.4372   14.8315 H       1  UNL1        0.2105
     20 C          62.7062   78.9799    9.5107 C.3     1  UNL1        0.1107
     21 N          63.0275   80.3219   10.0989 N.am    1  UNL1       -0.3026
     22 C          62.9876   80.5180   11.5855 C.2     1  UNL1        0.2240
     23 O          62.6264   79.3724   12.4839 O.2     1  UNL1       -0.2750
     24 H          63.2646   81.0738    9.5094 H       1  UNL1        0.1495
     25 N          64.5745   90.1858   14.4667 N.pl3   1  UNL1       -0.3153
     26 C          63.8629   90.7402   15.6653 C.3     1  UNL1        0.1097
     27 H          65.4427   90.5606   14.1927 H       1  UNL1        0.1483
     28 C          61.6712   88.5243   10.4905 C.1     1  UNL1       -0.0205
     29 C          60.8308   88.8188    9.2835 C.1     1  UNL1       -0.0502
     30 C          59.9904   89.1134    8.0764 C.ar    1  UNL1        0.0718
     31 C          58.9608   88.2030    7.4755 C.ar    1  UNL1        0.0158
     32 C          58.3661   88.8970    6.2861 C.ar    1  UNL1        0.0144
     33 C          59.0281   90.2363    6.1519 C.ar    1  UNL1        0.0644
     34 BR         58.7374   91.2618    5.0965 Br      1  UNL1       -0.0419
     35 S          60.0320   90.3700    7.2584 S.2     1  UNL1       -0.0718
@<TRIPOS>BOND
     1    20    21    1
     2    21    22   am
     3    22    23    2
     4    10    22    1
     5    10    11    1
     6    12    11    1
     7    12    13    1
     8    13     1    1
     9     1     2   ar
    10     2     3   ar
    11     3     4   ar
    12     4     5   ar
    13     5    25    1
    14    25    26    1
    15     5     6   ar
    16     6     7   ar
    17     7    28    1
    18    28    29    3
    19    29    30    1
    20    30    31   ar
    21    31    32   ar
    22    32    33   ar
    23    33    34    1
    24    33    35   ar
    25     7     8   ar
    26     8     9   ar
    27    13    14    1
    28    14    15    1
    29    14    16    1
    30    16    17    1
    31    12    10    1
    32     9     1   ar
    33    16    10    1
    34     9     4   ar
    35    35    30   ar
    36    21    24    1
    37    25    27    1
    38    15    18    1
    39    17    19    1
@<TRIPOS>MOLECULE
*****
 35 39 0 0 0
SMALL
GASTEIGER

@<TRIPOS>ATOM
      1 N          60.5043   95.5117   -2.6872 N.ar    1  UNL1       -0.2937
      2 C          61.4892   96.4616   -3.3018 C.ar    1  UNL1        0.1798
      3 N          62.5420   96.7649   -2.2772 N.ar    1  UNL1       -0.2195
      4 C          62.2077   96.0025   -1.0294 C.ar    1  UNL1        0.1483
      5 C          62.8874   95.9135    0.3048 C.ar    1  UNL1        0.1516
      6 N          62.3078   95.0499    1.3857 N.ar    1  UNL1       -0.2031
      7 C          61.0484   94.2754    1.1323 C.ar    1  UNL1        0.2093
      8 N          60.3687   94.3644   -0.2019 N.ar    1  UNL1       -0.2003
      9 C          60.9484   95.2280   -1.2828 C.ar    1  UNL1        0.1678
     10 C          57.8002   94.0160   -5.0357 C.3     1  UNL1        0.0977
     11 C          58.8001   94.0223   -6.1538 C.3     1  UNL1        0.0136
     12 C          59.1923   94.5197   -4.7942 C.3     1  UNL1        0.0344
     13 C          59.2888   94.9451   -3.3590 C.3     1  UNL1        0.1180
     14 C          57.9563   94.7043   -2.7135 C.3     1  UNL1        0.1582
     15 O          57.6055   94.9879   -1.2830 O.3     1  UNL1       -0.3800
     16 C          57.0363   94.1301   -3.7499 C.3     1  UNL1        0.1471
     17 O          55.6040   93.7387   -3.5376 O.3     1  UNL1       -0.3814
     18 H          56.6811   94.7420   -1.1219 H       1  UNL1        0.2105
     19 H          55.3540   93.9137   -2.6168 H       1  UNL1        0.2105
     20 C          55.3767   91.3776   -6.7434 C.3     1  UNL1        0.1107
     21 N          56.5058   91.9532   -5.9408 N.am    1  UNL1       -0.3026
     22 C          56.6711   93.4405   -5.8383 C.2     1  UNL1        0.2240
     23 O          55.7075   94.3523   -6.5382 O.2     1  UNL1       -0.2750
     24 H          57.1383   91.3547   -5.4814 H       1  UNL1        0.1495
     25 N          64.1468   96.6880    0.5581 N.pl3   1  UNL1       -0.3153
     26 C          65.4330   96.2590   -0.0836 C.3     1  UNL1        0.1097
     27 H          64.1291   97.4778    1.1455 H       1  UNL1        0.1483
     28 C          60.4688   93.4118    2.2131 C.1     1  UNL1       -0.0205
     29 C          59.8891   92.5483    3.2940 C.1     1  UNL1       -0.0502
     30 C          59.3094   91.6847    4.3749 C.ar    1  UNL1        0.0718
     31 C          57.8686   91.6391    4.7893 C.ar    1  UNL1        0.0158
     32 C          57.7375   90.6414    5.9017 C.ar    1  UNL1        0.0144
     33 C          59.0975   90.0702    6.1747 C.ar    1  UNL1        0.0644
     34 BR         59.4279   89.0359    7.2096 Br      1  UNL1       -0.0419
     35 S          60.0689   90.7151    5.2311 S.2     1  UNL1       -0.0718
@<TRIPOS>BOND
     1    20    21    1
     2    21    22   am
     3    22    23    2
     4    10    22    1
     5    10    11    1
     6    12    11    1
     7    12    13    1
     8    13     1    1
     9     1     2   ar
    10     2     3   ar
    11     3     4   ar
    12     4     5   ar
    13     5    25    1
    14    25    26    1
    15     5     6   ar
    16     6     7   ar
    17     7    28    1
    18    28    29    3
    19    29    30    1
    20    30    31   ar
    21    31    32   ar
    22    32    33   ar
    23    33    34    1
    24    33    35   ar
    25     7     8   ar
    26     8     9   ar
    27    13    14    1
    28    14    15    1
    29    14    16    1
    30    16    17    1
    31    12    10    1
    32     9     1   ar
    33    16    10    1
    34     9     4   ar
    35    35    30   ar
    36    21    24    1
    37    25    27    1
    38    15    18    1
    39    17    19    1
@<TRIPOS>MOLECULE
*****
 35 39 0 0 0
SMALL
GASTEIGER

@<TRIPOS>ATOM
      1 N          61.8135   86.0901   11.5921 N.ar    1  UNL1       -0.2937
      2 C          61.5541   84.6239   11.7739 C.ar    1  UNL1        0.1798
      3 N          62.4410   84.1297   12.8780 N.ar    1  UNL1       -0.2195
      4 C          63.2486   85.2905   13.3786 C.ar    1  UNL1        0.1483
      5 C          64.2869   85.4007   14.4555 C.ar    1  UNL1        0.1516
      6 N          64.9375   86.7226   14.7376 N.ar    1  UNL1       -0.2031
      7 C          64.5497   87.9341   13.9428 C.ar    1  UNL1        0.2093
      8 N          63.5112   87.8238   12.8659 N.ar    1  UNL1       -0.2003
      9 C          62.8607   86.5020   12.5839 C.ar    1  UNL1        0.1678
     10 C          60.0394   87.7879    8.5862 C.3     1  UNL1        0.0977
     11 C          60.0366   86.4690    7.8719 C.3     1  UNL1        0.0136
     12 C          60.6319   86.5772    9.2444 C.3     1  UNL1        0.0344
     13 C          61.1433   86.9869   10.5938 C.3     1  UNL1        0.1180
     14 C          60.8670   88.4507   10.7695 C.3     1  UNL1        0.1582
     15 O          61.2123   89.2747   11.9744 O.3     1  UNL1       -0.3800
     16 C          60.1847   88.9458    9.5287 C.3     1  UNL1        0.1471
     17 O          59.7280   90.3518    9.2750 O.3     1  UNL1       -0.3814
     18 H          60.9255   90.1905   11.8328 H       1  UNL1        0.2105
     19 H          59.9414   90.9046   10.0430 H       1  UNL1        0.2105
     20 C          59.4275   90.3869    5.6500 C.3     1  UNL1        0.1107
     21 N          60.1093   89.6160    6.7414 N.am    1  UNL1       -0.3026
     22 C          59.3577   88.5588    7.4948 C.2     1  UNL1        0.2240
     23 O          57.9246   88.2725    7.1569 O.2     1  UNL1       -0.2750
     24 H          61.0499   89.8039    6.9633 H       1  UNL1        0.1495
     25 N          64.6747   84.1891   15.2502 N.pl3   1  UNL1       -0.3153
     26 C          63.7455   83.0141   15.3280 C.3     1  UNL1        0.1097
     27 H          65.5392   84.1651   15.7208 H       1  UNL1        0.1483
     28 C          65.2002   89.2559   14.2248 C.1     1  UNL1       -0.0205
     29 C          65.8507   90.5777   14.5069 C.1     1  UNL1       -0.0502
     30 C          66.5013   91.8996   14.7889 C.ar    1  UNL1        0.0718
     31 C          66.0437   93.2341   14.2794 C.ar    1  UNL1        0.0158
     32 C          66.9833   94.2783   14.8056 C.ar    1  UNL1        0.0144
     33 C          68.0217   93.5891   15.6404 C.ar    1  UNL1        0.0644
     34 BR         69.1583   94.2533   16.3592 Br      1  UNL1       -0.0419
     35 S          67.7238   92.1190   15.6301 S.2     1  UNL1       -0.0718
@<TRIPOS>BOND
     1    20    21    1
     2    21    22   am
     3    22    23    2
     4    10    22    1
     5    10    11    1
     6    12    11    1
     7    12    13    1
     8    13     1    1
     9     1     2   ar
    10     2     3   ar
    11     3     4   ar
    12     4     5   ar
    13     5    25    1
    14    25    26    1
    15     5     6   ar
    16     6     7   ar
    17     7    28    1
    18    28    29    3
    19    29    30    1
    20    30    31   ar
    21    31    32   ar
    22    32    33   ar
    23    33    34    1
    24    33    35   ar
    25     7     8   ar
    26     8     9   ar
    27    13    14    1
    28    14    15    1
    29    14    16    1
    30    16    17    1
    31    12    10    1
    32     9     1   ar
    33    16    10    1
    34     9     4   ar
    35    35    30   ar
    36    21    24    1
    37    25    27    1
    38    15    18    1
    39    17    19    1
@<TRIPOS>MOLECULE
*****
 35 39 0 0 0
SMALL
GASTEIGER

@<TRIPOS>ATOM
      1 N          63.5645   94.5921   -0.1156 N.ar    1  UNL1       -0.2937
      2 C          64.9012   95.2661   -0.0209 C.ar    1  UNL1        0.1798
      3 N          65.1867   95.9168   -1.3419 N.ar    1  UNL1       -0.2195
      4 C          64.0265   95.6449   -2.2530 C.ar    1  UNL1        0.1483
      5 C          63.7535   96.0372   -3.6748 C.ar    1  UNL1        0.1516
      6 N          62.4778   95.6106   -4.3388 N.ar    1  UNL1       -0.2031
      7 C          61.4752   94.7919   -3.5808 C.ar    1  UNL1        0.2093
      8 N          61.7483   94.3997   -2.1590 N.ar    1  UNL1       -0.2003
      9 C          63.0239   94.8262   -1.4951 C.ar    1  UNL1        0.1678
     10 C          61.2084   93.0052    2.5293 C.3     1  UNL1        0.0977
     11 C          60.1036   93.8985    2.0482 C.3     1  UNL1        0.0136
     12 C          61.4590   93.9714    1.4097 C.3     1  UNL1        0.0344
     13 C          62.8873   93.8195    0.9773 C.3     1  UNL1        0.1180
     14 C          63.5194   92.7594    1.8298 C.3     1  UNL1        0.1582
     15 O          64.9398   92.2858    1.7390 O.3     1  UNL1       -0.3800
     16 C          62.4818   92.2561    2.7890 C.3     1  UNL1        0.1471
     17 O          62.6823   91.1909    3.8258 O.3     1  UNL1       -0.3814
     18 H          65.0931   91.5946    2.4020 H       1  UNL1        0.2105
     19 H          63.5964   90.8687    3.7857 H       1  UNL1        0.2105
     20 C          58.0973   91.7028    4.6211 C.3     1  UNL1        0.1107
     21 N          58.9040   92.3929    3.5613 N.am    1  UNL1       -0.3026
     22 C          60.4017   92.3151    3.5892 C.2     1  UNL1        0.2240
     23 O          61.0928   91.5474    4.6769 O.2     1  UNL1       -0.2750
     24 H          58.4504   92.8968    2.8474 H       1  UNL1        0.1495
     25 N          64.7560   96.8559   -4.4327 N.pl3   1  UNL1       -0.3153
     26 C          65.4909   96.2549   -5.5942 C.3     1  UNL1        0.1097
     27 H          64.9318   97.7877   -4.1679 H       1  UNL1        0.1483
     28 C          60.1995   94.3653   -4.2447 C.1     1  UNL1       -0.0205
     29 C          58.9239   93.9388   -4.9086 C.1     1  UNL1       -0.0502
     30 C          57.6482   93.5122   -5.5725 C.ar    1  UNL1        0.0718
     31 C          56.6208   94.4234   -6.1759 C.ar    1  UNL1        0.0158
     32 C          55.5136   93.5738   -6.7259 C.ar    1  UNL1        0.0144
     33 C          55.8568   92.1375   -6.4625 C.ar    1  UNL1        0.0644
     34 BR         55.0266   90.9482   -6.8447 Br      1  UNL1       -0.0419
     35 S          57.1761   92.0995   -5.7496 S.2     1  UNL1       -0.0718
@<TRIPOS>BOND
     1    20    21    1
     2    21    22   am
     3    22    23    2
     4    10    22    1
     5    10    11    1
     6    12    11    1
     7    12    13    1
     8    13     1    1
     9     1     2   ar
    10     2     3   ar
    11     3     4   ar
    12     4     5   ar
    13     5    25    1
    14    25    26    1
    15     5     6   ar
    16     6     7   ar
    17     7    28    1
    18    28    29    3
    19    29    30    1
    20    30    31   ar
    21    31    32   ar
    22    32    33   ar
    23    33    34    1
    24    33    35   ar
    25     7     8   ar
    26     8     9   ar
    27    13    14    1
    28    14    15    1
    29    14    16    1
    30    16    17    1
    31    12    10    1
    32     9     1   ar
    33    16    10    1
    34     9     4   ar
    35    35    30   ar
    36    21    24    1
    37    25    27    1
    38    15    18    1
    39    17    19    1
@<TRIPOS>MOLECULE
*****
 35 39 0 0 0
SMALL
GASTEIGER

@<TRIPOS>ATOM
      1 N          62.6493   93.6898   -2.3528 N.ar    1  UNL1       -0.2937
      2 C          63.9283   93.5835   -3.1292 C.ar    1  UNL1        0.1798
      3 N          63.6399   93.9627   -4.5515 N.ar    1  UNL1       -0.2195
      4 C          62.1827   94.3032   -4.6542 C.ar    1  UNL1        0.1483
      5 C          61.3342   94.7451   -5.8095 C.ar    1  UNL1        0.1516
      6 N          59.8734   95.0183   -5.6059 N.ar    1  UNL1       -0.2031
      7 C          59.2611   94.8497   -4.2470 C.ar    1  UNL1        0.2093
      8 N          60.1097   94.4078   -3.0917 N.ar    1  UNL1       -0.2003
      9 C          61.5704   94.1346   -3.2953 C.ar    1  UNL1        0.1678
     10 C          61.5002   92.7725    1.2394 C.3     1  UNL1        0.0977
     11 C          60.1339   92.4683    0.7003 C.3     1  UNL1        0.0136
     12 C          61.2194   92.9314   -0.2255 C.3     1  UNL1        0.0344
     13 C          62.4789   93.4018   -0.8906 C.3     1  UNL1        0.1180
     14 C          63.5382   93.5337    0.1632 C.3     1  UNL1        0.1582
     15 O          64.9538   93.9767   -0.0601 O.3     1  UNL1       -0.3800
     16 C          62.9333   93.1447    1.4797 C.3     1  UNL1        0.1471
     17 O          63.6378   93.1305    2.8038 O.3     1  UNL1       -0.3814
     18 H          65.4301   93.9753    0.7849 H       1  UNL1        0.2105
     19 H          64.5576   93.4143    2.6838 H       1  UNL1        0.2105
     20 C          59.5253   92.4907    4.6702 C.3     1  UNL1        0.1107
     21 N          59.8445   92.8160    3.2411 N.am    1  UNL1       -0.3026
     22 C          61.1810   92.4472    2.6685 C.2     1  UNL1        0.2240
     23 O          62.1983   91.7532    3.5250 O.2     1  UNL1       -0.2750
     24 H          59.1769   93.2715    2.6789 H       1  UNL1        0.1495
     25 N          61.9465   94.9137   -7.1684 N.pl3   1  UNL1       -0.3153
     26 C          62.8581   96.0733   -7.4417 C.3     1  UNL1        0.1097
     27 H          61.7501   94.2634   -7.8810 H       1  UNL1        0.1483
     28 C          57.8004   95.1229   -4.0434 C.1     1  UNL1       -0.0205
     29 C          56.3396   95.3961   -3.8398 C.1     1  UNL1       -0.0502
     30 C          54.8788   95.6694   -3.6361 C.ar    1  UNL1        0.0718
     31 C          54.1394   95.5860   -2.3337 C.ar    1  UNL1        0.0158
     32 C          52.7046   95.9391   -2.5918 C.ar    1  UNL1        0.0144
     33 C          52.5572   96.2407   -4.0538 C.ar    1  UNL1        0.0644
     34 BR         51.2888   96.6391   -4.7484 Br      1  UNL1       -0.0419
     35 S          53.9009   96.0740   -4.6992 S.2     1  UNL1       -0.0718
@<TRIPOS>BOND
     1    20    21    1
     2    21    22   am
     3    22    23    2
     4    10    22    1
     5    10    11    1
     6    12    11    1
     7    12    13    1
     8    13     1    1
     9     1     2   ar
    10     2     3   ar
    11     3     4   ar
    12     4     5   ar
    13     5    25    1
    14    25    26    1
    15     5     6   ar
    16     6     7   ar
    17     7    28    1
    18    28    29    3
    19    29    30    1
    20    30    31   ar
    21    31    32   ar
    22    32    33   ar
    23    33    34    1
    24    33    35   ar
    25     7     8   ar
    26     8     9   ar
    27    13    14    1
    28    14    15    1
    29    14    16    1
    30    16    17    1
    31    12    10    1
    32     9     1   ar
    33    16    10    1
    34     9     4   ar
    35    35    30   ar
    36    21    24    1
    37    25    27    1
    38    15    18    1
    39    17    19    1
@<TRIPOS>MOLECULE
*****
 35 39 0 0 0
SMALL
GASTEIGER

@<TRIPOS>ATOM
      1 N          63.1607   94.2764   -1.4389 N.ar    1  UNL1       -0.2937
      2 C          63.8701   93.9881   -0.1491 C.ar    1  UNL1        0.1798
      3 N          62.8416   93.9219    0.9407 N.ar    1  UNL1       -0.2195
      4 C          61.4966   94.1693    0.3245 C.ar    1  UNL1        0.1483
      5 C          60.1177   94.2233    0.9125 C.ar    1  UNL1        0.1516
      6 N          58.9360   94.4965    0.0298 N.ar    1  UNL1       -0.2031
      7 C          59.1333   94.7156   -1.4409 C.ar    1  UNL1        0.2093
      8 N          60.5122   94.6616   -2.0290 N.ar    1  UNL1       -0.2003
      9 C          61.6938   94.3884   -1.1463 C.ar    1  UNL1        0.1678
     10 C          64.7054   95.4008   -4.8176 C.3     1  UNL1        0.0977
     11 C          64.3928   96.8238   -4.4610 C.3     1  UNL1        0.0136
     12 C          64.0361   95.7175   -3.5130 C.3     1  UNL1        0.0344
     13 C          63.8051   94.4265   -2.7852 C.3     1  UNL1        0.1180
     14 C          64.3316   93.3118   -3.6398 C.3     1  UNL1        0.1582
     15 O          64.3061   91.8514   -3.2983 O.3     1  UNL1       -0.3800
     16 C          64.8880   93.9140   -4.8960 C.3     1  UNL1        0.1471
     17 O          65.5166   93.1615   -6.0310 O.3     1  UNL1       -0.3814
     18 H          64.7086   91.3435   -4.0200 H       1  UNL1        0.2105
     19 H          65.5113   92.2122   -5.8319 H       1  UNL1        0.2105
     20 C          67.3883   96.4252   -7.5567 C.3     1  UNL1        0.1107
     21 N          66.7665   96.1206   -6.2260 N.am    1  UNL1       -0.3026
     22 C          65.3272   95.7054   -6.1483 C.2     1  UNL1        0.2240
     23 O          64.5097   95.5948   -7.4010 O.2     1  UNL1       -0.2750
     24 H          67.3030   96.1932   -5.4037 H       1  UNL1        0.1495
     25 N          59.9205   94.0042    2.3833 N.pl3   1  UNL1       -0.3153
     26 C          60.3640   92.7185    3.0161 C.3     1  UNL1        0.1097
     27 H          59.5000   94.7041    2.9332 H       1  UNL1        0.1483
     28 C          57.9517   94.9888   -2.3236 C.1     1  UNL1       -0.0205
     29 C          56.7701   95.2620   -3.2063 C.1     1  UNL1       -0.0502
     30 C          55.5884   95.5352   -4.0890 C.ar    1  UNL1        0.0718
     31 C          55.5411   95.3605   -5.5780 C.ar    1  UNL1        0.0158
     32 C          54.1701   95.7484   -6.0469 C.ar    1  UNL1        0.0144
     33 C          53.3700   96.1628   -4.8476 C.ar    1  UNL1        0.0644
     34 BR         51.9439   96.6274   -4.8567 Br      1  UNL1       -0.0419
     35 S          54.2467   96.0310   -3.6376 S.2     1  UNL1       -0.0718
@<TRIPOS>BOND
     1    20    21    1
     2    21    22   am
     3    22    23    2
     4    10    22    1
     5    10    11    1
     6    12    11    1
     7    12    13    1
     8    13     1    1
     9     1     2   ar
    10     2     3   ar
    11     3     4   ar
    12     4     5   ar
    13     5    25    1
    14    25    26    1
    15     5     6   ar
    16     6     7   ar
    17     7    28    1
    18    28    29    3
    19    29    30    1
    20    30    31   ar
    21    31    32   ar
    22    32    33   ar
    23    33    34    1
    24    33    35   ar
    25     7     8   ar
    26     8     9   ar
    27    13    14    1
    28    14    15    1
    29    14    16    1
    30    16    17    1
    31    12    10    1
    32     9     1   ar
    33    16    10    1
    34     9     4   ar
    35    35    30   ar
    36    21    24    1
    37    25    27    1
    38    15    18    1
    39    17    19    1
