@<TRIPOS>MOLECULE
*****
 32 35 0 0 0
SMALL
GASTEIGER

@<TRIPOS>ATOM
      1 C          64.2708   89.7771   13.7851 C.ar    1  UNL1        0.0764
      2 C          64.6661   88.6820   14.7309 C.ar    1  UNL1        0.0176
      3 C          64.2721   87.2637   14.4426 C.ar    1  UNL1        0.0174
      4 C          63.4829   86.9405   13.2087 C.ar    1  UNL1        0.0676
      5 C          63.0876   88.0356   12.2629 C.ar    1  UNL1        0.0723
      6 N          63.4816   89.4539   12.5512 N.ar    1  UNL1       -0.2511
      7 C          62.2984   87.7124   11.0290 C.3     1  UNL1        0.0489
      8 C          61.9045   86.2941   10.7407 C.3     1  UNL1        0.0282
      9 C          62.2997   85.1989   11.6865 C.3     1  UNL1        0.0989
     10 N          63.0889   85.5221   12.9205 N.am    1  UNL1       -0.2540
     11 C          63.4842   84.4270   13.8662 C.2     1  UNL1        0.2528
     12 O          64.2734   84.7502   15.1002 O.2     1  UNL1       -0.2696
     13 C          63.0902   83.0086   13.5780 C.ar    1  UNL1        0.0547
     14 C          63.9869   82.1341   12.7526 C.ar    1  UNL1        0.0046
     15 C          63.5929   80.7158   12.4645 C.ar    1  UNL1        0.0010
     16 C          62.3023   80.1719   13.0017 C.ar    1  UNL1        0.0114
     17 C          61.4057   81.0464   13.8271 C.ar    1  UNL1        0.0578
     18 CL         60.1151   80.5026   14.3644 Cl      1  UNL1       -0.0822
     19 C          61.7997   82.4647   14.1153 C.ar    1  UNL1        0.0159
     20 C          64.7358   91.6810   15.4908 C.3     1  UNL1        0.0278
     21 C          64.6648   91.1956   14.0733 C.3     1  UNL1        0.1121
     22 N          64.9877   92.1285   12.9440 N.am    1  UNL1       -0.2973
     23 C          66.4170   92.3861   12.5693 C.2     1  UNL1        0.2461
     24 O          67.5236   91.7107   13.3239 O.2     1  UNL1       -0.2701
     25 H          64.2614   92.5717   12.4487 H       1  UNL1        0.1500
     26 C          66.7399   93.3190   11.4399 C.ar    1  UNL1        0.0535
     27 C          67.5194   92.8240   10.2577 C.ar    1  UNL1        0.0068
     28 C          67.8423   93.7569    9.1284 C.ar    1  UNL1        0.0298
     29 C          67.3857   95.1848    9.1813 C.ar    1  UNL1        0.1401
     30 F          67.7086   96.1177    8.0519 F       1  UNL1       -0.2042
     31 C          66.6063   95.6797   10.3634 C.ar    1  UNL1        0.0298
     32 C          66.2834   94.7468   11.4928 C.ar    1  UNL1        0.0068
@<TRIPOS>BOND
     1    21    20    1
     2    21    22    1
     3    22    23   am
     4    23    24    2
     5    23    26    1
     6    26    27   ar
     7    27    28   ar
     8    28    29   ar
     9    29    30    1
    10    29    31   ar
    11    31    32   ar
    12    21     1    1
    13     1     2   ar
    14     2     3   ar
    15     3     4   ar
    16     4     5   ar
    17     5     6   ar
    18     5     7    1
    19     7     8    1
    20     8     9    1
    21     9    10    1
    22    10    11   am
    23    11    12    2
    24    11    13    1
    25    13    14   ar
    26    14    15   ar
    27    15    16   ar
    28    16    17   ar
    29    17    18    1
    30    17    19   ar
    31    32    26   ar
    32     6     1   ar
    33    19    13   ar
    34    10     4    1
    35    22    25    1
@<TRIPOS>MOLECULE
*****
 32 35 0 0 0
SMALL
GASTEIGER

@<TRIPOS>ATOM
      1 C          63.7299   88.9199   14.7891 C.ar    1  UNL1        0.0764
      2 C          64.7541   89.9358   15.2001 C.ar    1  UNL1        0.0176
      3 C          65.1465   91.0307   14.2529 C.ar    1  UNL1        0.0174
      4 C          64.5147   91.1097   12.8948 C.ar    1  UNL1        0.0676
      5 C          63.4905   90.0938   12.4838 C.ar    1  UNL1        0.0723
      6 N          63.0981   88.9990   13.4310 N.ar    1  UNL1       -0.2511
      7 C          62.8586   90.1729   11.1257 C.3     1  UNL1        0.0489
      8 C          63.2510   91.2678   10.1785 C.3     1  UNL1        0.0282
      9 C          64.2753   92.2837   10.5894 C.3     1  UNL1        0.0989
     10 N          64.9071   92.2047   11.9476 N.am    1  UNL1       -0.2540
     11 C          65.9313   93.2206   12.3585 C.2     1  UNL1        0.2528
     12 O          66.5632   93.1415   13.7167 O.2     1  UNL1       -0.2696
     13 C          66.3238   94.3155   11.4113 C.ar    1  UNL1        0.0547
     14 C          66.1206   95.7504   11.7982 C.ar    1  UNL1        0.0046
     15 C          66.5130   96.8453   10.8510 C.ar    1  UNL1        0.0010
     16 C          67.1087   96.5053    9.5170 C.ar    1  UNL1        0.0114
     17 C          67.3119   95.0703    9.1302 C.ar    1  UNL1        0.0578
     18 CL         67.9076   94.7303    7.7962 Cl      1  UNL1       -0.0822
     19 C          66.9195   93.9755   10.0773 C.ar    1  UNL1        0.0159
     20 C          63.2663   88.0975   17.2096 C.3     1  UNL1        0.0278
     21 C          63.3374   87.8250   15.7363 C.3     1  UNL1        0.1121
     22 N          63.0161   86.4575   15.2101 N.am    1  UNL1       -0.2973
     23 C          64.1225   85.5394   14.7826 C.2     1  UNL1        0.2461
     24 O          65.5503   85.9886   14.8812 O.2     1  UNL1       -0.2701
     25 H          62.0790   86.1627   15.1454 H       1  UNL1        0.1500
     26 C          63.8012   84.1719   14.2564 C.ar    1  UNL1        0.0535
     27 C          64.6018   83.5961   13.1261 C.ar    1  UNL1        0.0068
     28 C          64.2805   82.2286   12.5999 C.ar    1  UNL1        0.0298
     29 C          63.1586   81.4371   13.2041 C.ar    1  UNL1        0.1401
     30 F          62.8373   80.0696   12.6779 F       1  UNL1       -0.2042
     31 C          62.3581   82.0129   14.3343 C.ar    1  UNL1        0.0298
     32 C          62.6794   83.3804   14.8605 C.ar    1  UNL1        0.0068
@<TRIPOS>BOND
     1    21    20    1
     2    21    22    1
     3    22    23   am
     4    23    24    2
     5    23    26    1
     6    26    27   ar
     7    27    28   ar
     8    28    29   ar
     9    29    30    1
    10    29    31   ar
    11    31    32   ar
    12    21     1    1
    13     1     2   ar
    14     2     3   ar
    15     3     4   ar
    16     4     5   ar
    17     5     6   ar
    18     5     7    1
    19     7     8    1
    20     8     9    1
    21     9    10    1
    22    10    11   am
    23    11    12    2
    24    11    13    1
    25    13    14   ar
    26    14    15   ar
    27    15    16   ar
    28    16    17   ar
    29    17    18    1
    30    17    19   ar
    31    32    26   ar
    32     6     1   ar
    33    19    13   ar
    34    10     4    1
    35    22    25    1
@<TRIPOS>MOLECULE
*****
 32 35 0 0 0
SMALL
GASTEIGER

@<TRIPOS>ATOM
      1 C          63.9563   89.3321   13.8545 C.ar    1  UNL1        0.0764
      2 C          63.4404   88.7940   12.5529 C.ar    1  UNL1        0.0176
      3 C          63.3244   87.3128   12.3470 C.ar    1  UNL1        0.0174
      4 C          63.7244   86.3696   13.4427 C.ar    1  UNL1        0.0676
      5 C          64.2403   86.9077   14.7443 C.ar    1  UNL1        0.0723
      6 N          64.3563   88.3890   14.9502 N.ar    1  UNL1       -0.2511
      7 C          64.6403   85.9646   15.8400 C.3     1  UNL1        0.0489
      8 C          64.5243   84.4834   15.6340 C.3     1  UNL1        0.0282
      9 C          64.0083   83.9452   14.3324 C.3     1  UNL1        0.0989
     10 N          63.6084   84.8883   13.2367 N.am    1  UNL1       -0.2540
     11 C          63.0924   84.3502   11.9351 C.2     1  UNL1        0.2528
     12 O          62.6925   85.2934   10.8394 O.2     1  UNL1       -0.2696
     13 C          62.9764   82.8689   11.7291 C.ar    1  UNL1        0.0547
     14 C          63.3920   82.2584   10.4235 C.ar    1  UNL1        0.0046
     15 C          63.2760   80.7772   10.2176 C.ar    1  UNL1        0.0010
     16 C          62.7444   79.9065   11.3173 C.ar    1  UNL1        0.0114
     17 C          62.3289   80.5169   12.6229 C.ar    1  UNL1        0.0578
     18 CL         61.7973   79.6462   13.7225 Cl      1  UNL1       -0.0822
     19 C          62.4449   81.9982   12.8288 C.ar    1  UNL1        0.0159
     20 C          63.7250   91.4153   15.3898 C.3     1  UNL1        0.0278
     21 C          64.0723   90.8134   14.0605 C.3     1  UNL1        0.1121
     22 N          64.5356   91.6928   12.9371 N.am    1  UNL1       -0.2973
     23 C          65.9728   92.1152   12.8591 C.2     1  UNL1        0.2461
     24 O          66.9467   91.6583   13.9045 O.2     1  UNL1       -0.2701
     25 H          63.8965   91.9927   12.2510 H       1  UNL1        0.1500
     26 C          66.4361   92.9946   11.7357 C.ar    1  UNL1        0.0535
     27 C          67.1996   92.4045   10.5872 C.ar    1  UNL1        0.0068
     28 C          67.6629   93.2839    9.4638 C.ar    1  UNL1        0.0298
     29 C          67.3628   94.7534    9.4889 C.ar    1  UNL1        0.1401
     30 F          67.8261   95.6328    8.3655 F       1  UNL1       -0.2042
     31 C          66.5993   95.3434   10.6373 C.ar    1  UNL1        0.0298
     32 C          66.1360   94.4640   11.7607 C.ar    1  UNL1        0.0068
@<TRIPOS>BOND
     1    21    20    1
     2    21    22    1
     3    22    23   am
     4    23    24    2
     5    23    26    1
     6    26    27   ar
     7    27    28   ar
     8    28    29   ar
     9    29    30    1
    10    29    31   ar
    11    31    32   ar
    12    21     1    1
    13     1     2   ar
    14     2     3   ar
    15     3     4   ar
    16     4     5   ar
    17     5     6   ar
    18     5     7    1
    19     7     8    1
    20     8     9    1
    21     9    10    1
    22    10    11   am
    23    11    12    2
    24    11    13    1
    25    13    14   ar
    26    14    15   ar
    27    15    16   ar
    28    16    17   ar
    29    17    18    1
    30    17    19   ar
    31    32    26   ar
    32     6     1   ar
    33    19    13   ar
    34    10     4    1
    35    22    25    1
