@<TRIPOS>MOLECULE
*****
 32 36 0 0 0
SMALL
GASTEIGER

@<TRIPOS>ATOM
      1 O          63.5265   87.1749   13.5502 O.2     1  UNL1       -0.2698
      2 C          63.0154   86.2901   12.4521 C.2     1  UNL1        0.2507
      3 N          62.2337   86.8801   11.3160 N.am    1  UNL1       -0.2723
      4 C          61.7226   85.9952   10.2179 C.3     1  UNL1        0.1257
      5 C          60.9409   86.5853    9.0818 C.3     1  UNL1        0.1637
      6 O          60.6703   88.0602    9.0437 O.3     1  UNL1       -0.3502
      7 C          61.1814   88.9451   10.1418 C.3     1  UNL1        0.1622
      8 C          61.9631   88.3550   11.2779 C.3     1  UNL1        0.1096
      9 C          63.2860   84.8151   12.4902 C.ar    1  UNL1        0.0738
     10 C          63.5284   84.0639   11.2147 C.ar    1  UNL1        0.0175
     11 C          63.7990   82.5891   11.2527 C.ar    1  UNL1        0.0579
     12 CL         64.0413   81.8379    9.9771 Cl      1  UNL1       -0.0822
     13 C          63.8273   81.8654   12.5662 C.ar    1  UNL1        0.0130
     14 C          63.5850   82.6166   13.8417 C.ar    1  UNL1        0.0219
     15 C          63.3143   84.0915   13.8037 C.ar    1  UNL1        0.1073
     16 N          63.0720   84.8426   15.0793 N.ar    1  UNL1       -0.1477
     17 N          64.1151   85.5308   15.9090 N.ar    1  UNL1       -0.1447
     18 C          63.4319   86.1510   17.0916 C.ar    1  UNL1        0.1446
     19 C          61.9665   85.8463   16.9927 C.ar    1  UNL1        0.1446
     20 N          61.7441   85.0376   15.7490 N.ar    1  UNL1       -0.1447
     21 C          62.4742   89.2399   12.3760 C.3     1  UNL1        0.0488
     22 C          63.4443   90.3402   12.0624 C.ar    1  UNL1       -0.0189
     23 C          63.4220   90.9980   10.7146 C.ar    1  UNL1       -0.0041
     24 C          64.3921   92.0983   10.4009 C.ar    1  UNL1        0.0013
     25 C          65.3844   92.5408   11.4352 C.ar    1  UNL1        0.0209
     26 C          65.4065   91.8829   12.7831 C.ar    1  UNL1        0.1026
     27 C          64.4365   90.7826   13.0967 C.ar    1  UNL1        0.0167
     28 N          66.3988   92.3254   13.8173 N.ar    1  UNL1       -0.1478
     29 N          67.8919   92.2944   13.6769 N.ar    1  UNL1       -0.1447
     30 C          68.4880   92.8264   14.9463 C.ar    1  UNL1        0.1446
     31 C          67.3634   93.1861   15.8714 C.ar    1  UNL1        0.1446
     32 N          66.0721   92.8765   15.1737 N.ar    1  UNL1       -0.1447
@<TRIPOS>BOND
     1     1     2    2
     2     2     9    1
     3     9    10   ar
     4    10    11   ar
     5    11    12    1
     6    11    13   ar
     7    13    14   ar
     8    14    15   ar
     9    15    16    1
    10    16    17   ar
    11    17    18   ar
    12    18    19   ar
    13    19    20   ar
    14     2     3   am
    15     3     4    1
    16     4     5    1
    17     5     6    1
    18     6     7    1
    19     7     8    1
    20     8    21    1
    21    21    22    1
    22    22    23   ar
    23    23    24   ar
    24    24    25   ar
    25    25    26   ar
    26    26    28    1
    27    28    29   ar
    28    29    30   ar
    29    30    31   ar
    30    31    32   ar
    31    26    27   ar
    32    15     9   ar
    33    20    16   ar
    34     8     3    1
    35    27    22   ar
    36    32    28   ar
@<TRIPOS>MOLECULE
*****
 32 36 0 0 0
SMALL
GASTEIGER

@<TRIPOS>ATOM
      1 O          62.6430   90.0409   11.5124 O.2     1  UNL1       -0.2698
      2 C          62.6622   88.5412   11.5399 C.2     1  UNL1        0.2507
      3 N          63.3148   87.8203   12.6819 N.am    1  UNL1       -0.2723
      4 C          63.3339   86.3207   12.7095 C.3     1  UNL1        0.1257
      5 C          63.9866   85.5998   13.8516 C.3     1  UNL1        0.1637
      6 O          64.6200   86.3785   14.9662 O.3     1  UNL1       -0.3502
      7 C          64.6009   87.8782   14.9387 C.3     1  UNL1        0.1622
      8 C          63.9483   88.5991   13.7966 C.3     1  UNL1        0.1096
      9 C          62.0287   87.7625   10.4252 C.ar    1  UNL1        0.0738
     10 C          62.8415   86.7709    9.6467 C.ar    1  UNL1        0.0175
     11 C          62.2081   85.9922    8.5321 C.ar    1  UNL1        0.0579
     12 CL         63.0210   85.0006    7.7536 Cl      1  UNL1       -0.0822
     13 C          60.7619   86.2051    8.1961 C.ar    1  UNL1        0.0130
     14 C          59.9490   87.1967    8.9746 C.ar    1  UNL1        0.0219
     15 C          60.5824   87.9754   10.0891 C.ar    1  UNL1        0.1073
     16 N          59.7696   88.9670   10.8676 N.ar    1  UNL1       -0.1477
     17 N          59.0244   88.6910   12.1398 N.ar    1  UNL1       -0.1447
     18 C          58.3535   89.9621   12.5691 C.ar    1  UNL1        0.1446
     19 C          58.6840   91.0236   11.5622 C.ar    1  UNL1        0.1446
     20 N          59.5592   90.4086   10.5106 N.ar    1  UNL1       -0.1447
     21 C          63.9291   90.0987   13.7691 C.3     1  UNL1        0.0488
     22 C          65.2178   90.8644   13.7158 C.ar    1  UNL1       -0.0189
     23 C          66.1586   90.8315   14.8836 C.ar    1  UNL1       -0.0041
     24 C          67.4474   91.5972   14.8303 C.ar    1  UNL1        0.0013
     25 C          67.7954   92.3957   13.6092 C.ar    1  UNL1        0.0209
     26 C          66.8545   92.4286   12.4413 C.ar    1  UNL1        0.1026
     27 C          65.5658   91.6630   12.4946 C.ar    1  UNL1        0.0167
     28 N          67.2025   93.2272   11.2202 N.ar    1  UNL1       -0.1478
     29 N          67.9720   92.7311   10.0320 N.ar    1  UNL1       -0.1447
     30 C          68.0871   93.8594    9.0503 C.ar    1  UNL1        0.1446
     31 C          67.3888   95.0528    9.6317 C.ar    1  UNL1        0.1446
     32 N          66.8420   94.6622   10.9728 N.ar    1  UNL1       -0.1447
@<TRIPOS>BOND
     1     1     2    2
     2     2     9    1
     3     9    10   ar
     4    10    11   ar
     5    11    12    1
     6    11    13   ar
     7    13    14   ar
     8    14    15   ar
     9    15    16    1
    10    16    17   ar
    11    17    18   ar
    12    18    19   ar
    13    19    20   ar
    14     2     3   am
    15     3     4    1
    16     4     5    1
    17     5     6    1
    18     6     7    1
    19     7     8    1
    20     8    21    1
    21    21    22    1
    22    22    23   ar
    23    23    24   ar
    24    24    25   ar
    25    25    26   ar
    26    26    28    1
    27    28    29   ar
    28    29    30   ar
    29    30    31   ar
    30    31    32   ar
    31    26    27   ar
    32    15     9   ar
    33    20    16   ar
    34     8     3    1
    35    27    22   ar
    36    32    28   ar
@<TRIPOS>MOLECULE
*****
 32 36 0 0 0
SMALL
GASTEIGER

@<TRIPOS>ATOM
      1 O          63.6947   87.8017   12.7854 O.2     1  UNL1       -0.2698
      2 C          62.7449   87.3563   11.7132 C.2     1  UNL1        0.2507
      3 N          61.6434   88.2683   11.2607 N.am    1  UNL1       -0.2723
      4 C          60.6937   87.8228   10.1886 C.3     1  UNL1        0.1257
      5 C          59.5921   88.7349    9.7361 C.3     1  UNL1        0.1637
      6 O          59.4404   90.0925   10.3557 O.3     1  UNL1       -0.3502
      7 C          60.3901   90.5380   11.4279 C.3     1  UNL1        0.1622
      8 C          61.4916   89.6259   11.8804 C.3     1  UNL1        0.1096
      9 C          62.8968   85.9986   11.0936 C.ar    1  UNL1        0.0738
     10 C          62.8188   85.8412    9.6039 C.ar    1  UNL1        0.0175
     11 C          62.9707   84.4837    8.9842 C.ar    1  UNL1        0.0579
     12 CL         62.8927   84.3263    7.4945 Cl      1  UNL1       -0.0822
     13 C          63.2004   83.2836    9.8542 C.ar    1  UNL1        0.0130
     14 C          63.2783   83.4410   11.3439 C.ar    1  UNL1        0.0219
     15 C          63.1265   84.7985   11.9635 C.ar    1  UNL1        0.1073
     16 N          63.2044   84.9560   13.4532 N.ar    1  UNL1       -0.1477
     17 N          64.4328   85.3059   14.2398 N.ar    1  UNL1       -0.1447
     18 C          64.0552   85.3573   15.6906 C.ar    1  UNL1        0.1446
     19 C          62.5935   85.0391   15.8007 C.ar    1  UNL1        0.1446
     20 N          62.0677   84.7911   14.4179 N.ar    1  UNL1       -0.1447
     21 C          62.4413   90.0714   12.9526 C.3     1  UNL1        0.0488
     22 C          63.6312   90.9132   12.5981 C.ar    1  UNL1       -0.0189
     23 C          63.8060   91.4112   11.1941 C.ar    1  UNL1       -0.0041
     24 C          64.9959   92.2530   10.8396 C.ar    1  UNL1        0.0013
     25 C          66.0109   92.5968   11.8892 C.ar    1  UNL1        0.0209
     26 C          65.8360   92.0987   13.2933 C.ar    1  UNL1        0.1026
     27 C          64.6461   91.2569   13.6477 C.ar    1  UNL1        0.0167
     28 N          66.8510   92.4425   14.3429 N.ar    1  UNL1       -0.1478
     29 N          67.5328   91.4722   15.2614 N.ar    1  UNL1       -0.1447
     30 C          68.4655   92.2469   16.1444 C.ar    1  UNL1        0.1446
     31 C          68.3602   93.6960   15.7717 C.ar    1  UNL1        0.1446
     32 N          67.3623   93.8170   14.6582 N.ar    1  UNL1       -0.1447
@<TRIPOS>BOND
     1     1     2    2
     2     2     9    1
     3     9    10   ar
     4    10    11   ar
     5    11    12    1
     6    11    13   ar
     7    13    14   ar
     8    14    15   ar
     9    15    16    1
    10    16    17   ar
    11    17    18   ar
    12    18    19   ar
    13    19    20   ar
    14     2     3   am
    15     3     4    1
    16     4     5    1
    17     5     6    1
    18     6     7    1
    19     7     8    1
    20     8    21    1
    21    21    22    1
    22    22    23   ar
    23    23    24   ar
    24    24    25   ar
    25    25    26   ar
    26    26    28    1
    27    28    29   ar
    28    29    30   ar
    29    30    31   ar
    30    31    32   ar
    31    26    27   ar
    32    15     9   ar
    33    20    16   ar
    34     8     3    1
    35    27    22   ar
    36    32    28   ar
@<TRIPOS>MOLECULE
*****
 32 36 0 0 0
SMALL
GASTEIGER

@<TRIPOS>ATOM
      1 O          63.4246   87.5207   13.1683 O.2     1  UNL1       -0.2698
      2 C          62.7566   87.3361   11.8380 C.2     1  UNL1        0.2507
      3 N          61.9304   88.4433   11.2536 N.am    1  UNL1       -0.2723
      4 C          61.2624   88.2588    9.9233 C.3     1  UNL1        0.1257
      5 C          60.4362   89.3660    9.3389 C.3     1  UNL1        0.1637
      6 O          60.2782   90.6578   10.0847 O.3     1  UNL1       -0.3502
      7 C          60.9463   90.8424   11.4150 C.3     1  UNL1        0.1622
      8 C          61.7724   89.7352   11.9994 C.3     1  UNL1        0.1096
      9 C          62.9146   86.0443   11.0922 C.ar    1  UNL1        0.0738
     10 C          62.8208   86.0262    9.5952 C.ar    1  UNL1        0.0175
     11 C          62.9788   84.7344    8.8494 C.ar    1  UNL1        0.0579
     12 CL         62.8849   84.7164    7.3524 Cl      1  UNL1       -0.0822
     13 C          63.2307   83.4607    9.6005 C.ar    1  UNL1        0.0130
     14 C          63.3246   83.4788   11.0974 C.ar    1  UNL1        0.0219
     15 C          63.1665   84.7706   11.8433 C.ar    1  UNL1        0.1073
     16 N          63.2604   84.7886   13.3402 N.ar    1  UNL1       -0.1477
     17 N          64.5215   84.9113   14.1432 N.ar    1  UNL1       -0.1447
     18 C          64.1502   84.8857   15.5963 C.ar    1  UNL1        0.1446
     19 C          62.6596   84.7472   15.6914 C.ar    1  UNL1        0.1446
     20 N          62.1097   84.6872   14.2971 N.ar    1  UNL1       -0.1447
     21 C          62.4405   89.9197   13.3297 C.3     1  UNL1        0.0488
     22 C          63.7683   90.6125   13.4124 C.ar    1  UNL1       -0.0189
     23 C          64.6158   90.4650   14.6412 C.ar    1  UNL1       -0.0041
     24 C          65.9437   91.1578   14.7240 C.ar    1  UNL1        0.0013
     25 C          66.4240   91.9980   13.5779 C.ar    1  UNL1        0.0209
     26 C          65.5764   92.1454   12.3491 C.ar    1  UNL1        0.1026
     27 C          64.2486   91.4527   12.2664 C.ar    1  UNL1        0.0167
     28 N          66.0567   92.9856   11.2031 N.ar    1  UNL1       -0.1478
     29 N          65.5810   94.3667   10.8622 N.ar    1  UNL1       -0.1447
     30 C          66.3273   94.8269    9.6452 C.ar    1  UNL1        0.1446
     31 C          67.2644   93.7302    9.2339 C.ar    1  UNL1        0.1446
     32 N          67.0972   92.5922   10.1967 N.ar    1  UNL1       -0.1447
@<TRIPOS>BOND
     1     1     2    2
     2     2     9    1
     3     9    10   ar
     4    10    11   ar
     5    11    12    1
     6    11    13   ar
     7    13    14   ar
     8    14    15   ar
     9    15    16    1
    10    16    17   ar
    11    17    18   ar
    12    18    19   ar
    13    19    20   ar
    14     2     3   am
    15     3     4    1
    16     4     5    1
    17     5     6    1
    18     6     7    1
    19     7     8    1
    20     8    21    1
    21    21    22    1
    22    22    23   ar
    23    23    24   ar
    24    24    25   ar
    25    25    26   ar
    26    26    28    1
    27    28    29   ar
    28    29    30   ar
    29    30    31   ar
    30    31    32   ar
    31    26    27   ar
    32    15     9   ar
    33    20    16   ar
    34     8     3    1
    35    27    22   ar
    36    32    28   ar
@<TRIPOS>MOLECULE
*****
 32 36 0 0 0
SMALL
GASTEIGER

@<TRIPOS>ATOM
      1 O          63.8127   87.6510   14.3138 O.2     1  UNL1       -0.2698
      2 C          63.3074   87.0353   13.0427 C.2     1  UNL1        0.2507
      3 N          62.7649   87.9085   11.9504 N.am    1  UNL1       -0.2723
      4 C          62.2596   87.2929   10.6793 C.3     1  UNL1        0.1257
      5 C          61.7171   88.1662    9.5869 C.3     1  UNL1        0.1637
      6 O          61.6801   89.6550    9.7656 O.3     1  UNL1       -0.3502
      7 C          62.1855   90.2707   11.0367 C.3     1  UNL1        0.1622
      8 C          62.7279   89.3975   12.1290 C.3     1  UNL1        0.1096
      9 C          63.3444   85.5464   12.8640 C.ar    1  UNL1        0.0738
     10 C          63.5681   84.9599   11.5017 C.ar    1  UNL1        0.0175
     11 C          63.6051   83.4711   11.3230 C.ar    1  UNL1        0.0579
     12 CL         63.8288   82.8846    9.9606 Cl      1  UNL1       -0.0822
     13 C          63.4185   82.5688   12.5066 C.ar    1  UNL1        0.0130
     14 C          63.1948   83.1553   13.8689 C.ar    1  UNL1        0.0219
     15 C          63.1578   84.6441   14.0476 C.ar    1  UNL1        0.1073
     16 N          62.9341   85.2307   15.4100 N.ar    1  UNL1       -0.1477
     17 N          64.0023   85.6708   16.3666 N.ar    1  UNL1       -0.1447
     18 C          63.3314   86.1922   17.6028 C.ar    1  UNL1        0.1446
     19 C          61.8485   86.0743   17.4101 C.ar    1  UNL1        0.1446
     20 N          61.6030   85.4801   16.0549 N.ar    1  UNL1       -0.1447
     21 C          63.2333   90.0131   13.4001 C.3     1  UNL1        0.0488
     22 C          64.5169   90.7891   13.3990 C.ar    1  UNL1       -0.0189
     23 C          65.4854   90.6383   14.5344 C.ar    1  UNL1       -0.0041
     24 C          66.7691   91.4143   14.5333 C.ar    1  UNL1        0.0013
     25 C          67.0843   92.3410   13.3967 C.ar    1  UNL1        0.0209
     26 C          66.1158   92.4917   12.2612 C.ar    1  UNL1        0.1026
     27 C          64.8321   91.7158   12.2624 C.ar    1  UNL1        0.0167
     28 N          66.4310   93.4184   11.1246 N.ar    1  UNL1       -0.1478
     29 N          65.6580   94.6478   10.7490 N.ar    1  UNL1       -0.1447
     30 C          66.3238   95.2676    9.5563 C.ar    1  UNL1        0.1446
     31 C          67.5083   94.4213    9.1948 C.ar    1  UNL1        0.1446
     32 N          67.5746   93.2784   10.1640 N.ar    1  UNL1       -0.1447
@<TRIPOS>BOND
     1     1     2    2
     2     2     9    1
     3     9    10   ar
     4    10    11   ar
     5    11    12    1
     6    11    13   ar
     7    13    14   ar
     8    14    15   ar
     9    15    16    1
    10    16    17   ar
    11    17    18   ar
    12    18    19   ar
    13    19    20   ar
    14     2     3   am
    15     3     4    1
    16     4     5    1
    17     5     6    1
    18     6     7    1
    19     7     8    1
    20     8    21    1
    21    21    22    1
    22    22    23   ar
    23    23    24   ar
    24    24    25   ar
    25    25    26   ar
    26    26    28    1
    27    28    29   ar
    28    29    30   ar
    29    30    31   ar
    30    31    32   ar
    31    26    27   ar
    32    15     9   ar
    33    20    16   ar
    34     8     3    1
    35    27    22   ar
    36    32    28   ar
@<TRIPOS>MOLECULE
*****
 32 36 0 0 0
SMALL
GASTEIGER

@<TRIPOS>ATOM
      1 O          63.6319   89.0588   12.2440 O.2     1  UNL1       -0.2698
      2 C          63.4166   87.9524   13.2337 C.2     1  UNL1        0.2507
      3 N          63.3537   88.2599   14.7004 N.am    1  UNL1       -0.2723
      4 C          63.1383   87.1535   15.6901 C.3     1  UNL1        0.1257
      5 C          63.0754   87.4611   17.1570 C.3     1  UNL1        0.1637
      6 O          63.2279   88.8750   17.6340 O.3     1  UNL1       -0.3502
      7 C          63.4433   89.9814   16.6443 C.3     1  UNL1        0.1622
      8 C          63.5062   89.6739   15.1776 C.3     1  UNL1        0.1096
      9 C          63.2641   86.5385   12.7565 C.ar    1  UNL1        0.0738
     10 C          64.0208   85.4334   13.4318 C.ar    1  UNL1        0.0175
     11 C          63.8683   84.0195   12.9548 C.ar    1  UNL1        0.0579
     12 CL         64.6251   82.9143   13.6301 Cl      1  UNL1       -0.0822
     13 C          62.9592   83.7107   11.8024 C.ar    1  UNL1        0.0130
     14 C          62.2024   84.8159   11.1271 C.ar    1  UNL1        0.0219
     15 C          62.3549   86.2297   11.6042 C.ar    1  UNL1        0.1073
     16 N          61.5982   87.3349   10.9288 N.ar    1  UNL1       -0.1477
     17 N          61.8988   87.9115    9.5771 N.ar    1  UNL1       -0.1447
     18 C          60.8944   88.9904    9.2995 C.ar    1  UNL1        0.1446
     19 C          59.9729   89.0806   10.4797 C.ar    1  UNL1        0.1446
     20 N          60.4079   88.0574   11.4866 N.ar    1  UNL1       -0.1447
     21 C          63.7215   90.7803   14.1878 C.3     1  UNL1        0.0488
     22 C          65.0994   91.3298   13.9653 C.ar    1  UNL1       -0.0189
     23 C          66.1685   91.1129   14.9947 C.ar    1  UNL1       -0.0041
     24 C          67.5465   91.6625   14.7723 C.ar    1  UNL1        0.0013
     25 C          67.8551   92.4290   13.5203 C.ar    1  UNL1        0.0209
     26 C          66.7858   92.6459   12.4909 C.ar    1  UNL1        0.1026
     27 C          65.4080   92.0963   12.7134 C.ar    1  UNL1        0.0167
     28 N          67.0944   93.4123   11.2390 N.ar    1  UNL1       -0.1478
     29 N          67.8010   92.8770   10.0290 N.ar    1  UNL1       -0.1447
     30 C          67.8939   93.9825    9.0194 C.ar    1  UNL1        0.1446
     31 C          67.2447   95.2011    9.6055 C.ar    1  UNL1        0.1446
     32 N          66.7505   94.8488   10.9772 N.ar    1  UNL1       -0.1447
@<TRIPOS>BOND
     1     1     2    2
     2     2     9    1
     3     9    10   ar
     4    10    11   ar
     5    11    12    1
     6    11    13   ar
     7    13    14   ar
     8    14    15   ar
     9    15    16    1
    10    16    17   ar
    11    17    18   ar
    12    18    19   ar
    13    19    20   ar
    14     2     3   am
    15     3     4    1
    16     4     5    1
    17     5     6    1
    18     6     7    1
    19     7     8    1
    20     8    21    1
    21    21    22    1
    22    22    23   ar
    23    23    24   ar
    24    24    25   ar
    25    25    26   ar
    26    26    28    1
    27    28    29   ar
    28    29    30   ar
    29    30    31   ar
    30    31    32   ar
    31    26    27   ar
    32    15     9   ar
    33    20    16   ar
    34     8     3    1
    35    27    22   ar
    36    32    28   ar
@<TRIPOS>MOLECULE
*****
 32 36 0 0 0
SMALL
GASTEIGER

@<TRIPOS>ATOM
      1 O          63.0292   89.6171   10.8200 O.2     1  UNL1       -0.2698
      2 C          62.6538   88.1746   10.9880 C.2     1  UNL1        0.2507
      3 N          63.0881   87.4242   12.2121 N.am    1  UNL1       -0.2723
      4 C          62.7127   85.9817   12.3801 C.3     1  UNL1        0.1257
      5 C          63.1470   85.2313   13.6042 C.3     1  UNL1        0.1637
      6 O          63.9566   85.9235   14.6603 O.3     1  UNL1       -0.3502
      7 C          64.3320   87.3660   14.4923 C.3     1  UNL1        0.1622
      8 C          63.8978   88.1164   13.2682 C.3     1  UNL1        0.1096
      9 C          61.8442   87.4824    9.9318 C.ar    1  UNL1        0.0738
     10 C          62.4923   86.4729    9.0314 C.ar    1  UNL1        0.0175
     11 C          61.6827   85.7807    7.9753 C.ar    1  UNL1        0.0579
     12 CL         62.3308   84.7712    7.0748 Cl      1  UNL1       -0.0822
     13 C          60.2250   86.0981    7.8196 C.ar    1  UNL1        0.0130
     14 C          59.5769   87.1076    8.7201 C.ar    1  UNL1        0.0219
     15 C          60.3864   87.7997    9.7762 C.ar    1  UNL1        0.1073
     16 N          59.7383   88.8093   10.6766 N.ar    1  UNL1       -0.1477
     17 N          59.1256   88.5304   12.0171 N.ar    1  UNL1       -0.1447
     18 C          58.5977   89.8237   12.5636 C.ar    1  UNL1        0.1446
     19 C          58.8841   90.9019   11.5609 C.ar    1  UNL1        0.1446
     20 N          59.5891   90.2750   10.3947 N.ar    1  UNL1       -0.1447
     21 C          64.2731   89.5589   13.1003 C.3     1  UNL1        0.0488
     22 C          64.5267   90.4133   14.3067 C.ar    1  UNL1       -0.0189
     23 C          63.4672   90.5593   15.3584 C.ar    1  UNL1       -0.0041
     24 C          63.7207   91.4137   16.5650 C.ar    1  UNL1        0.0013
     25 C          65.0337   92.1221   16.7198 C.ar    1  UNL1        0.0209
     26 C          66.0933   91.9761   15.6681 C.ar    1  UNL1        0.1026
     27 C          65.8398   91.1217   14.4616 C.ar    1  UNL1        0.0167
     28 N          67.4064   92.6846   15.8229 N.ar    1  UNL1       -0.1478
     29 N          67.6380   94.1576   15.6602 N.ar    1  UNL1       -0.1447
     30 C          69.0932   94.4278   15.9044 C.ar    1  UNL1        0.1446
     31 C          69.7608   93.1217   16.2179 C.ar    1  UNL1        0.1446
     32 N          68.7184   92.0443   16.1676 N.ar    1  UNL1       -0.1447
@<TRIPOS>BOND
     1     1     2    2
     2     2     9    1
     3     9    10   ar
     4    10    11   ar
     5    11    12    1
     6    11    13   ar
     7    13    14   ar
     8    14    15   ar
     9    15    16    1
    10    16    17   ar
    11    17    18   ar
    12    18    19   ar
    13    19    20   ar
    14     2     3   am
    15     3     4    1
    16     4     5    1
    17     5     6    1
    18     6     7    1
    19     7     8    1
    20     8    21    1
    21    21    22    1
    22    22    23   ar
    23    23    24   ar
    24    24    25   ar
    25    25    26   ar
    26    26    28    1
    27    28    29   ar
    28    29    30   ar
    29    30    31   ar
    30    31    32   ar
    31    26    27   ar
    32    15     9   ar
    33    20    16   ar
    34     8     3    1
    35    27    22   ar
    36    32    28   ar
@<TRIPOS>MOLECULE
*****
 32 36 0 0 0
SMALL
GASTEIGER

@<TRIPOS>ATOM
      1 O          61.8230   85.7591   13.1628 O.2     1  UNL1       -0.2698
      2 C          62.3737   84.7141   12.2383 C.2     1  UNL1        0.2507
      3 N          62.6143   85.0416   10.7945 N.am    1  UNL1       -0.2723
      4 C          63.1651   83.9966    9.8700 C.3     1  UNL1        0.1257
      5 C          63.4056   84.3242    8.4261 C.3     1  UNL1        0.1637
      6 O          63.0954   85.6967    7.9066 O.3     1  UNL1       -0.3502
      7 C          62.5446   86.7417    8.8311 C.3     1  UNL1        0.1622
      8 C          62.3041   86.4142   10.2749 C.3     1  UNL1        0.1096
      9 C          62.6840   83.3415   12.7578 C.ar    1  UNL1        0.0738
     10 C          62.5747   82.1532   11.8490 C.ar    1  UNL1        0.0175
     11 C          62.8849   80.7807   12.3684 C.ar    1  UNL1        0.0579
     12 CL         62.7757   79.5924   11.4596 Cl      1  UNL1       -0.0822
     13 C          63.3044   80.5964   13.7967 C.ar    1  UNL1        0.0130
     14 C          63.4137   81.7847   14.7055 C.ar    1  UNL1        0.0219
     15 C          63.1035   83.1573   14.1861 C.ar    1  UNL1        0.1073
     16 N          63.2127   84.3456   15.0950 N.ar    1  UNL1       -0.1477
     17 N          62.2334   84.7312   16.1637 N.ar    1  UNL1       -0.1447
     18 C          62.7359   85.9808   16.8239 C.ar    1  UNL1        0.1446
     19 C          64.0259   86.3676   16.1632 C.ar    1  UNL1        0.1446
     20 N          64.3205   85.3569   15.0947 N.ar    1  UNL1       -0.1447
     21 C          61.7533   87.4592   11.1994 C.3     1  UNL1        0.0488
     22 C          62.3865   88.8177   11.2579 C.ar    1  UNL1       -0.0189
     23 C          62.4412   89.6733   10.0271 C.ar    1  UNL1       -0.0041
     24 C          63.0744   91.0319   10.0855 C.ar    1  UNL1        0.0013
     25 C          63.6528   91.5349   11.3749 C.ar    1  UNL1        0.0209
     26 C          63.5981   90.6792   12.6057 C.ar    1  UNL1        0.1026
     27 C          62.9649   89.3207   12.5472 C.ar    1  UNL1        0.0167
     28 N          64.1766   91.1822   13.8951 N.ar    1  UNL1       -0.1478
     29 N          65.4935   91.8818   14.0571 N.ar    1  UNL1       -0.1447
     30 C          65.6705   92.2059   15.5109 C.ar    1  UNL1        0.1446
     31 C          64.4630   91.7065   16.2475 C.ar    1  UNL1        0.1446
     32 N          63.5396   91.0738   15.2489 N.ar    1  UNL1       -0.1447
@<TRIPOS>BOND
     1     1     2    2
     2     2     9    1
     3     9    10   ar
     4    10    11   ar
     5    11    12    1
     6    11    13   ar
     7    13    14   ar
     8    14    15   ar
     9    15    16    1
    10    16    17   ar
    11    17    18   ar
    12    18    19   ar
    13    19    20   ar
    14     2     3   am
    15     3     4    1
    16     4     5    1
    17     5     6    1
    18     6     7    1
    19     7     8    1
    20     8    21    1
    21    21    22    1
    22    22    23   ar
    23    23    24   ar
    24    24    25   ar
    25    25    26   ar
    26    26    28    1
    27    28    29   ar
    28    29    30   ar
    29    30    31   ar
    30    31    32   ar
    31    26    27   ar
    32    15     9   ar
    33    20    16   ar
    34     8     3    1
    35    27    22   ar
    36    32    28   ar
@<TRIPOS>MOLECULE
*****
 32 36 0 0 0
SMALL
GASTEIGER

@<TRIPOS>ATOM
      1 O          62.9211   87.7531   12.7397 O.2     1  UNL1       -0.2698
      2 C          62.8209   88.9929   11.9013 C.2     1  UNL1        0.2507
      3 N          61.8346   89.0576   10.7730 N.am    1  UNL1       -0.2723
      4 C          61.7343   90.2973    9.9346 C.3     1  UNL1        0.1257
      5 C          60.7480   90.3620    8.8063 C.3     1  UNL1        0.1637
      6 O          59.8619   89.1869    8.5165 O.3     1  UNL1       -0.3502
      7 C          59.9621   87.9472    9.3549 C.3     1  UNL1        0.1622
      8 C          60.9484   87.8825   10.4831 C.3     1  UNL1        0.1096
      9 C          63.7070   90.1680   12.1911 C.ar    1  UNL1        0.0738
     10 C          64.0986   91.1028   11.0854 C.ar    1  UNL1        0.0175
     11 C          64.9847   92.2778   11.3752 C.ar    1  UNL1        0.0579
     12 CL         65.3763   93.2127   10.2694 Cl      1  UNL1       -0.0822
     13 C          65.4792   92.5181   12.7708 C.ar    1  UNL1        0.0130
     14 C          65.0876   91.5832   13.8766 C.ar    1  UNL1        0.0219
     15 C          64.2015   90.4082   13.5867 C.ar    1  UNL1        0.1073
     16 N          63.8099   89.4733   14.6925 N.ar    1  UNL1       -0.1477
     17 N          62.7962   89.7496   15.7631 N.ar    1  UNL1       -0.1447
     18 C          62.7230   88.5451   16.6541 C.ar    1  UNL1        0.1446
     19 C          63.6915   87.5244   16.1342 C.ar    1  UNL1        0.1446
     20 N          64.3632   88.0981   14.9219 N.ar    1  UNL1       -0.1447
     21 C          61.0486   86.6427   11.3216 C.3     1  UNL1        0.0488
     22 C          61.9427   85.5174   10.8924 C.ar    1  UNL1       -0.0189
     23 C          62.6463   85.5813    9.5693 C.ar    1  UNL1       -0.0041
     24 C          63.5404   84.4559    9.1401 C.ar    1  UNL1        0.0013
     25 C          63.7309   83.2666   10.0341 C.ar    1  UNL1        0.0209
     26 C          63.0273   83.2027   11.3574 C.ar    1  UNL1        0.1026
     27 C          62.1332   84.3281   11.7865 C.ar    1  UNL1        0.0167
     28 N          63.2178   82.0135   12.2514 N.ar    1  UNL1       -0.1478
     29 N          62.4318   80.7369   12.2002 N.ar    1  UNL1       -0.1447
     30 C          62.9560   79.8264   13.2708 C.ar    1  UNL1        0.1446
     31 C          64.0660   80.5402   13.9838 C.ar    1  UNL1        0.1446
     32 N          64.2279   81.8919   13.3538 N.ar    1  UNL1       -0.1447
@<TRIPOS>BOND
     1     1     2    2
     2     2     9    1
     3     9    10   ar
     4    10    11   ar
     5    11    12    1
     6    11    13   ar
     7    13    14   ar
     8    14    15   ar
     9    15    16    1
    10    16    17   ar
    11    17    18   ar
    12    18    19   ar
    13    19    20   ar
    14     2     3   am
    15     3     4    1
    16     4     5    1
    17     5     6    1
    18     6     7    1
    19     7     8    1
    20     8    21    1
    21    21    22    1
    22    22    23   ar
    23    23    24   ar
    24    24    25   ar
    25    25    26   ar
    26    26    28    1
    27    28    29   ar
    28    29    30   ar
    29    30    31   ar
    30    31    32   ar
    31    26    27   ar
    32    15     9   ar
    33    20    16   ar
    34     8     3    1
    35    27    22   ar
    36    32    28   ar
