@<TRIPOS>MOLECULE
*****
 32 35 0 0 0
SMALL
GASTEIGER

@<TRIPOS>ATOM
      1 O          64.5698   89.3956   14.9134 O.2     1  UNL1       -0.2742
      2 C          63.8748   89.0477   13.6304 C.2     1  UNL1        0.2335
      3 N          63.7148   87.6111   13.2297 N.am    1  UNL1       -0.2755
      4 C          63.0198   87.2633   11.9467 C.3     1  UNL1        0.1148
      5 C          62.8598   85.8267   11.5460 C.3     1  UNL1        0.1123
      6 N          63.3948   84.7379   12.4282 N.pl3   1  UNL1       -0.3041
      7 C          64.0898   85.0857   13.7112 C.3     1  UNL1        0.1123
      8 C          64.2498   86.5224   14.1119 C.3     1  UNL1        0.1148
      9 C          63.2348   83.3013   12.0275 C.ar    1  UNL1        0.0479
     10 C          63.6555   82.8530   10.6593 C.ar    1  UNL1        0.0145
     11 C          63.4955   81.4164   10.2585 C.ar    1  UNL1        0.0051
     12 C          62.9149   80.4281   11.2261 C.ar    1  UNL1        0.0715
     13 C          62.4942   80.8764   12.5943 C.ar    1  UNL1        0.0051
     14 C          62.6542   82.3130   12.9950 C.ar    1  UNL1        0.0145
     15 C          62.7549   78.9916   10.8254 C.3     1  UNL1        0.4186
     16 F          62.5949   77.5549   10.4246 F       1  UNL1       -0.1659
     17 F          63.0694   79.3530    9.4040 F       1  UNL1       -0.1659
     18 F          62.4404   78.6301   12.2467 F       1  UNL1       -0.1659
     19 C          63.3398   90.1365   12.7482 C.3     1  UNL1        0.1226
     20 C          64.2257   91.2775   12.3439 C.ar    1  UNL1       -0.0097
     21 C          64.2774   91.7154   10.9102 C.ar    1  UNL1       -0.0026
     22 C          65.1633   92.8564   10.5061 C.ar    1  UNL1        0.0111
     23 C          65.9974   93.5594   11.5356 C.ar    1  UNL1        0.0577
     24 CL         66.8833   94.7005   11.1313 Cl      1  UNL1       -0.0822
     25 C          65.9457   93.1215   12.9693 C.ar    1  UNL1        0.0111
     26 C          65.0598   91.9806   13.3734 C.ar    1  UNL1       -0.0026
     27 C          61.9190   90.0843   12.2702 C.ar    1  UNL1        0.0094
     28 C          61.5853   90.4869   10.8643 C.ar    1  UNL1       -0.0004
     29 C          60.1644   90.4347   10.3863 C.ar    1  UNL1        0.0204
     30 C          59.0773   89.9799   11.3143 C.ar    1  UNL1        0.0989
     31 N          59.4109   89.5772   12.7202 N.ar    1  UNL1       -0.2426
     32 C          60.8317   89.6294   13.1982 C.ar    1  UNL1        0.0954
@<TRIPOS>BOND
     1     1     2    2
     2     2    19    1
     3    19    20    1
     4    20    21   ar
     5    21    22   ar
     6    22    23   ar
     7    23    24    1
     8    23    25   ar
     9    25    26   ar
    10    19    27    1
    11    27    28   ar
    12    28    29   ar
    13    29    30   ar
    14    30    31   ar
    15    31    32   ar
    16     2     3   am
    17     3     4    1
    18     4     5    1
    19     5     6    1
    20     6     9    1
    21     9    10   ar
    22    10    11   ar
    23    11    12   ar
    24    12    15    1
    25    15    16    1
    26    15    17    1
    27    15    18    1
    28    12    13   ar
    29    13    14   ar
    30     6     7    1
    31     7     8    1
    32    26    20   ar
    33    32    27   ar
    34     8     3    1
    35    14     9   ar
@<TRIPOS>MOLECULE
*****
 32 35 0 0 0
SMALL
GASTEIGER

@<TRIPOS>ATOM
      1 O          63.5637   88.9576   16.8149 O.2     1  UNL1       -0.2742
      2 C          63.7336   88.7908   15.3339 C.2     1  UNL1        0.2335
      3 N          63.5923   87.4337   14.7109 N.am    1  UNL1       -0.2755
      4 C          63.7622   87.2669   13.2298 C.3     1  UNL1        0.1148
      5 C          63.6208   85.9098   12.6068 C.3     1  UNL1        0.1123
      6 N          63.3095   84.7194   13.4648 N.pl3   1  UNL1       -0.3041
      7 C          63.1396   84.8862   14.9457 C.3     1  UNL1        0.1123
      8 C          63.2810   86.2433   15.5688 C.3     1  UNL1        0.1148
      9 C          63.1681   83.3623   12.8417 C.ar    1  UNL1        0.0479
     10 C          62.6181   82.2216   13.6457 C.ar    1  UNL1        0.0145
     11 C          62.4767   80.8645   13.0227 C.ar    1  UNL1        0.0051
     12 C          62.8854   80.6480   11.5957 C.ar    1  UNL1        0.0715
     13 C          63.4354   81.7886   10.7918 C.ar    1  UNL1        0.0051
     14 C          63.5768   83.1458   11.4148 C.ar    1  UNL1        0.0145
     15 C          62.7440   79.2909   10.9727 C.3     1  UNL1        0.4186
     16 F          62.6026   77.9337   10.3496 F       1  UNL1       -0.1659
     17 F          62.9711   79.8898    9.6164 F       1  UNL1       -0.1659
     18 F          62.5169   78.6919   12.3290 F       1  UNL1       -0.1659
     19 C          64.0449   89.9812   14.4759 C.3     1  UNL1        0.1226
     20 C          65.1348   90.9306   14.8773 C.ar    1  UNL1       -0.0097
     21 C          64.8988   91.9208   15.9789 C.ar    1  UNL1       -0.0026
     22 C          65.9886   92.8701   16.3803 C.ar    1  UNL1        0.0111
     23 C          67.3144   92.8291   15.6799 C.ar    1  UNL1        0.0577
     24 CL         68.4043   93.7785   16.0813 Cl      1  UNL1       -0.0822
     25 C          67.5504   91.8389   14.5783 C.ar    1  UNL1        0.0111
     26 C          66.4606   90.8896   14.1770 C.ar    1  UNL1       -0.0026
     27 C          63.2664   90.2223   13.2167 C.ar    1  UNL1        0.0094
     28 C          63.9243   90.8866   12.0437 C.ar    1  UNL1       -0.0004
     29 C          63.1457   91.1276   10.7844 C.ar    1  UNL1        0.0204
     30 C          61.7093   90.7045   10.6981 C.ar    1  UNL1        0.0989
     31 N          61.0513   90.0402   11.8711 N.ar    1  UNL1       -0.2426
     32 C          61.8299   89.7991   13.1304 C.ar    1  UNL1        0.0954
@<TRIPOS>BOND
     1     1     2    2
     2     2    19    1
     3    19    20    1
     4    20    21   ar
     5    21    22   ar
     6    22    23   ar
     7    23    24    1
     8    23    25   ar
     9    25    26   ar
    10    19    27    1
    11    27    28   ar
    12    28    29   ar
    13    29    30   ar
    14    30    31   ar
    15    31    32   ar
    16     2     3   am
    17     3     4    1
    18     4     5    1
    19     5     6    1
    20     6     9    1
    21     9    10   ar
    22    10    11   ar
    23    11    12   ar
    24    12    15    1
    25    15    16    1
    26    15    17    1
    27    15    18    1
    28    12    13   ar
    29    13    14   ar
    30     6     7    1
    31     7     8    1
    32    26    20   ar
    33    32    27   ar
    34     8     3    1
    35    14     9   ar
@<TRIPOS>MOLECULE
*****
 32 35 0 0 0
SMALL
GASTEIGER

@<TRIPOS>ATOM
      1 O          64.3180   89.3291   15.7071 O.2     1  UNL1       -0.2742
      2 C          63.9663   89.0602   14.2738 C.2     1  UNL1        0.2335
      3 N          63.7861   87.6492   13.7979 N.am    1  UNL1       -0.2755
      4 C          63.4344   87.3802   12.3647 C.3     1  UNL1        0.1148
      5 C          63.2542   85.9692   11.8887 C.3     1  UNL1        0.1123
      6 N          63.4257   84.8271   12.8459 N.pl3   1  UNL1       -0.3041
      7 C          63.7774   85.0960   14.2790 C.3     1  UNL1        0.1123
      8 C          63.9576   86.5071   14.7551 C.3     1  UNL1        0.1148
      9 C          63.2456   83.4161   12.3699 C.ar    1  UNL1        0.0479
     10 C          62.6554   82.3852   13.2858 C.ar    1  UNL1        0.0145
     11 C          62.4752   80.9742   12.8099 C.ar    1  UNL1        0.0051
     12 C          62.8852   80.5941   11.4180 C.ar    1  UNL1        0.0715
     13 C          63.4754   81.6249   10.5020 C.ar    1  UNL1        0.0051
     14 C          63.6556   83.0360   10.9780 C.ar    1  UNL1        0.0145
     15 C          62.7051   79.1831   10.9420 C.3     1  UNL1        0.4186
     16 F          62.5249   77.7720   10.4661 F       1  UNL1       -0.1659
     17 F          62.4795   78.7350   12.3556 F       1  UNL1       -0.1659
     18 F          62.9306   79.6311    9.5284 F       1  UNL1       -0.1659
     19 C          63.7947   90.2023   13.3167 C.3     1  UNL1        0.1226
     20 C          62.7484   90.1313   12.2441 C.ar    1  UNL1       -0.0097
     21 C          61.3000   90.0149   12.6159 C.ar    1  UNL1       -0.0026
     22 C          60.2538   89.9439   11.5433 C.ar    1  UNL1        0.0111
     23 C          60.6561   89.9893   10.0990 C.ar    1  UNL1        0.0577
     24 CL         59.6098   89.9183    9.0264 Cl      1  UNL1       -0.0822
     25 C          62.1046   90.1056    9.7272 C.ar    1  UNL1        0.0111
     26 C          63.1508   90.1766   10.7998 C.ar    1  UNL1       -0.0026
     27 C          64.6694   91.4153   13.4320 C.ar    1  UNL1        0.0094
     28 C          65.0254   92.2026   12.2059 C.ar    1  UNL1       -0.0004
     29 C          65.9001   93.4158   12.3213 C.ar    1  UNL1        0.0204
     30 C          66.4189   93.8415   13.6628 C.ar    1  UNL1        0.0989
     31 N          66.0629   93.0542   14.8889 N.ar    1  UNL1       -0.2426
     32 C          65.1882   91.8411   14.7736 C.ar    1  UNL1        0.0954
@<TRIPOS>BOND
     1     1     2    2
     2     2    19    1
     3    19    20    1
     4    20    21   ar
     5    21    22   ar
     6    22    23   ar
     7    23    24    1
     8    23    25   ar
     9    25    26   ar
    10    19    27    1
    11    27    28   ar
    12    28    29   ar
    13    29    30   ar
    14    30    31   ar
    15    31    32   ar
    16     2     3   am
    17     3     4    1
    18     4     5    1
    19     5     6    1
    20     6     9    1
    21     9    10   ar
    22    10    11   ar
    23    11    12   ar
    24    12    15    1
    25    15    16    1
    26    15    17    1
    27    15    18    1
    28    12    13   ar
    29    13    14   ar
    30     6     7    1
    31     7     8    1
    32    26    20   ar
    33    32    27   ar
    34     8     3    1
    35    14     9   ar
@<TRIPOS>MOLECULE
*****
 32 35 0 0 0
SMALL
GASTEIGER

@<TRIPOS>ATOM
      1 O          63.6745   91.1328   16.7711 O.2     1  UNL1       -0.2742
      2 C          64.1713   90.4957   15.5072 C.2     1  UNL1        0.2335
      3 N          63.9471   89.0322   15.2666 N.am    1  UNL1       -0.2755
      4 C          64.4439   88.3951   14.0027 C.3     1  UNL1        0.1148
      5 C          64.2197   86.9316   13.7622 C.3     1  UNL1        0.1123
      6 N          63.4987   86.1052   14.7855 N.pl3   1  UNL1       -0.3041
      7 C          63.0020   86.7422   16.0494 C.3     1  UNL1        0.1123
      8 C          63.2262   88.2058   16.2899 C.3     1  UNL1        0.1148
      9 C          63.2746   84.6417   14.5450 C.ar    1  UNL1        0.0479
     10 C          62.0471   83.9718   15.0878 C.ar    1  UNL1        0.0145
     11 C          61.8229   82.5083   14.8473 C.ar    1  UNL1        0.0051
     12 C          62.8261   81.7147   14.0639 C.ar    1  UNL1        0.0715
     13 C          64.0535   82.3845   13.5211 C.ar    1  UNL1        0.0051
     14 C          64.2778   83.8481   13.7616 C.ar    1  UNL1        0.0145
     15 C          62.6019   80.2512   13.8234 C.3     1  UNL1        0.4186
     16 F          62.3777   78.7876   13.5828 F       1  UNL1       -0.1659
     17 F          61.1209   80.4850   13.7814 F       1  UNL1       -0.1659
     18 F          64.0830   80.0174   13.8654 F       1  UNL1       -0.1659
     19 C          64.8923   91.3222   14.4838 C.3     1  UNL1        0.1226
     20 C          66.1374   92.0676   14.8637 C.ar    1  UNL1       -0.0097
     21 C          66.2864   93.5145   14.4974 C.ar    1  UNL1       -0.0026
     22 C          67.5314   94.2599   14.8773 C.ar    1  UNL1        0.0111
     23 C          68.6274   93.5583   15.6234 C.ar    1  UNL1        0.0577
     24 CL         69.8724   94.3038   16.0033 Cl      1  UNL1       -0.0822
     25 C          68.4783   92.1114   15.9897 C.ar    1  UNL1        0.0111
     26 C          67.2333   91.3661   15.6098 C.ar    1  UNL1       -0.0026
     27 C          64.3683   91.4032   13.0807 C.ar    1  UNL1        0.0094
     28 C          65.1938   92.0495   12.0079 C.ar    1  UNL1       -0.0004
     29 C          64.6697   92.1305   10.6048 C.ar    1  UNL1        0.0204
     30 C          63.3202   91.5652   10.2744 C.ar    1  UNL1        0.0989
     31 N          62.4946   90.9190   11.3472 N.ar    1  UNL1       -0.2426
     32 C          63.0187   90.8379   12.7503 C.ar    1  UNL1        0.0954
@<TRIPOS>BOND
     1     1     2    2
     2     2    19    1
     3    19    20    1
     4    20    21   ar
     5    21    22   ar
     6    22    23   ar
     7    23    24    1
     8    23    25   ar
     9    25    26   ar
    10    19    27    1
    11    27    28   ar
    12    28    29   ar
    13    29    30   ar
    14    30    31   ar
    15    31    32   ar
    16     2     3   am
    17     3     4    1
    18     4     5    1
    19     5     6    1
    20     6     9    1
    21     9    10   ar
    22    10    11   ar
    23    11    12   ar
    24    12    15    1
    25    15    16    1
    26    15    17    1
    27    15    18    1
    28    12    13   ar
    29    13    14   ar
    30     6     7    1
    31     7     8    1
    32    26    20   ar
    33    32    27   ar
    34     8     3    1
    35    14     9   ar
@<TRIPOS>MOLECULE
*****
 32 35 0 0 0
SMALL
GASTEIGER

@<TRIPOS>ATOM
      1 O          59.3056   88.2547   12.3063 O.2     1  UNL1       -0.2742
      2 C          60.6467   88.2612   11.6342 C.2     1  UNL1        0.2335
      3 N          61.7897   89.0138   12.2481 N.am    1  UNL1       -0.2755
      4 C          63.1307   89.0203   11.5760 C.3     1  UNL1        0.1148
      5 C          64.2737   89.7729   12.1900 C.3     1  UNL1        0.1123
      6 N          64.0758   90.5191   13.4761 N.pl3   1  UNL1       -0.3041
      7 C          62.7348   90.5126   14.1482 C.3     1  UNL1        0.1123
      8 C          61.5917   89.7600   13.5342 C.3     1  UNL1        0.1148
      9 C          65.2188   91.2717   14.0901 C.ar    1  UNL1        0.0479
     10 C          66.4386   91.5803   13.2734 C.ar    1  UNL1        0.0145
     11 C          67.5816   92.3329   13.8874 C.ar    1  UNL1        0.0051
     12 C          67.5049   92.7770   15.3181 C.ar    1  UNL1        0.0715
     13 C          66.2852   92.4685   16.1348 C.ar    1  UNL1        0.0051
     14 C          65.1421   91.7158   15.5208 C.ar    1  UNL1        0.0145
     15 C          68.6479   93.5296   15.9321 C.3     1  UNL1        0.4186
     16 F          69.7910   94.2823   16.5462 F       1  UNL1       -0.1659
     17 F          69.1459   92.2615   16.5595 F       1  UNL1       -0.1659
     18 F          68.1499   94.7978   15.3047 F       1  UNL1       -0.1659
     19 C          60.8446   87.5150   10.3481 C.3     1  UNL1        0.1226
     20 C          61.7357   86.3089   10.3102 C.ar    1  UNL1       -0.0097
     21 C          62.4211   85.9226    9.0332 C.ar    1  UNL1       -0.0026
     22 C          63.3122   84.7166    8.9954 C.ar    1  UNL1        0.0111
     23 C          63.5179   83.8969   10.2347 C.ar    1  UNL1        0.0577
     24 CL         64.4091   82.6908   10.1968 Cl      1  UNL1       -0.0822
     25 C          62.8326   84.2833   11.5117 C.ar    1  UNL1        0.0111
     26 C          61.9415   85.4893   11.5495 C.ar    1  UNL1       -0.0026
     27 C          60.1515   87.9748    9.0999 C.ar    1  UNL1        0.0094
     28 C          60.4085   89.3517    8.5630 C.ar    1  UNL1       -0.0004
     29 C          59.7153   89.8115    7.3147 C.ar    1  UNL1        0.0204
     30 C          58.7651   88.8944    6.6034 C.ar    1  UNL1        0.0989
     31 N          58.5081   87.5176    7.1402 N.ar    1  UNL1       -0.2426
     32 C          59.2012   87.0577    8.3884 C.ar    1  UNL1        0.0954
@<TRIPOS>BOND
     1     1     2    2
     2     2    19    1
     3    19    20    1
     4    20    21   ar
     5    21    22   ar
     6    22    23   ar
     7    23    24    1
     8    23    25   ar
     9    25    26   ar
    10    19    27    1
    11    27    28   ar
    12    28    29   ar
    13    29    30   ar
    14    30    31   ar
    15    31    32   ar
    16     2     3   am
    17     3     4    1
    18     4     5    1
    19     5     6    1
    20     6     9    1
    21     9    10   ar
    22    10    11   ar
    23    11    12   ar
    24    12    15    1
    25    15    16    1
    26    15    17    1
    27    15    18    1
    28    12    13   ar
    29    13    14   ar
    30     6     7    1
    31     7     8    1
    32    26    20   ar
    33    32    27   ar
    34     8     3    1
    35    14     9   ar
@<TRIPOS>MOLECULE
*****
 32 35 0 0 0
SMALL
GASTEIGER

@<TRIPOS>ATOM
      1 O          62.3260   91.3721   10.5203 O.2     1  UNL1       -0.2742
      2 C          63.2324   90.7056   11.5124 C.2     1  UNL1        0.2335
      3 N          63.0826   89.2409   11.7992 N.am    1  UNL1       -0.2755
      4 C          63.9890   88.5744   12.7913 C.3     1  UNL1        0.1148
      5 C          63.8393   87.1097   13.0781 C.3     1  UNL1        0.1123
      6 N          62.7831   86.3115   12.3728 N.pl3   1  UNL1       -0.3041
      7 C          61.8767   86.9780   11.3807 C.3     1  UNL1        0.1123
      8 C          62.0265   88.4427   11.0939 C.3     1  UNL1        0.1148
      9 C          62.6333   84.8468   12.6596 C.ar    1  UNL1        0.0479
     10 C          62.6734   83.8545   11.5354 C.ar    1  UNL1        0.0145
     11 C          62.5236   82.3898   11.8222 C.ar    1  UNL1        0.0051
     12 C          62.3338   81.9174   13.2332 C.ar    1  UNL1        0.0715
     13 C          62.2937   82.9097   14.3573 C.ar    1  UNL1        0.0051
     14 C          62.4435   84.3744   14.0706 C.ar    1  UNL1        0.0145
     15 C          62.1840   80.4528   13.5199 C.3     1  UNL1        0.4186
     16 F          62.0342   78.9880   13.8067 F       1  UNL1       -0.1659
     17 F          63.1701   80.1393   12.4340 F       1  UNL1       -0.1659
     18 F          61.1979   80.7663   14.6059 F       1  UNL1       -0.1659
     19 C          64.2886   91.5037   12.2177 C.3     1  UNL1        0.1226
     20 C          65.2858   92.2950   11.4241 C.ar    1  UNL1       -0.0097
     21 C          66.6038   91.6829   11.0524 C.ar    1  UNL1       -0.0026
     22 C          67.6009   92.4741   10.2588 C.ar    1  UNL1        0.0111
     23 C          67.2799   93.8773    9.8370 C.ar    1  UNL1        0.0577
     24 CL         68.2771   94.6685    9.0434 Cl      1  UNL1       -0.0822
     25 C          65.9619   94.4894   10.2087 C.ar    1  UNL1        0.0111
     26 C          64.9648   93.6982   11.0022 C.ar    1  UNL1       -0.0026
     27 C          64.3476   91.5108   13.7165 C.ar    1  UNL1        0.0094
     28 C          65.4680   92.2180   14.4196 C.ar    1  UNL1       -0.0004
     29 C          65.5270   92.2250   15.9185 C.ar    1  UNL1        0.0204
     30 C          64.4655   91.5248   16.7141 C.ar    1  UNL1        0.0989
     31 N          63.3451   90.8176   16.0109 N.ar    1  UNL1       -0.2426
     32 C          63.2861   90.8105   14.5122 C.ar    1  UNL1        0.0954
@<TRIPOS>BOND
     1     1     2    2
     2     2    19    1
     3    19    20    1
     4    20    21   ar
     5    21    22   ar
     6    22    23   ar
     7    23    24    1
     8    23    25   ar
     9    25    26   ar
    10    19    27    1
    11    27    28   ar
    12    28    29   ar
    13    29    30   ar
    14    30    31   ar
    15    31    32   ar
    16     2     3   am
    17     3     4    1
    18     4     5    1
    19     5     6    1
    20     6     9    1
    21     9    10   ar
    22    10    11   ar
    23    11    12   ar
    24    12    15    1
    25    15    16    1
    26    15    17    1
    27    15    18    1
    28    12    13   ar
    29    13    14   ar
    30     6     7    1
    31     7     8    1
    32    26    20   ar
    33    32    27   ar
    34     8     3    1
    35    14     9   ar
@<TRIPOS>MOLECULE
*****
 32 35 0 0 0
SMALL
GASTEIGER

@<TRIPOS>ATOM
      1 O          64.9537   83.0947   11.3484 O.2     1  UNL1       -0.2742
      2 C          63.7103   83.7444   11.8795 C.2     1  UNL1        0.2335
      3 N          62.9443   84.7094   11.0240 N.am    1  UNL1       -0.2755
      4 C          61.7009   85.3591   11.5551 C.3     1  UNL1        0.1148
      5 C          60.9349   86.3241   10.6996 C.3     1  UNL1        0.1123
      6 N          61.4123   86.6395    9.3130 N.pl3   1  UNL1       -0.3041
      7 C          62.6556   85.9899    8.7819 C.3     1  UNL1        0.1123
      8 C          63.4216   85.0248    9.6374 C.3     1  UNL1        0.1148
      9 C          60.6463   87.6046    8.4575 C.ar    1  UNL1        0.0479
     10 C          60.7842   89.0809    8.6843 C.ar    1  UNL1        0.0145
     11 C          60.0182   90.0460    7.8289 C.ar    1  UNL1        0.0051
     12 C          59.1143   89.5347    6.7465 C.ar    1  UNL1        0.0715
     13 C          58.9763   88.0584    6.5197 C.ar    1  UNL1        0.0051
     14 C          59.7423   87.0933    7.3752 C.ar    1  UNL1        0.0145
     15 C          58.3483   90.4998    5.8910 C.3     1  UNL1        0.4186
     16 F          57.5823   91.4649    5.0355 F       1  UNL1       -0.1659
     17 F          59.6376   91.0948    5.4078 F       1  UNL1       -0.1659
     18 F          57.0590   89.9047    6.3742 F       1  UNL1       -0.1659
     19 C          63.2330   83.4289   13.2661 C.3     1  UNL1        0.1226
     20 C          63.2306   84.4968   14.3196 C.ar    1  UNL1       -0.0097
     21 C          62.3088   84.3862   15.4976 C.ar    1  UNL1       -0.0026
     22 C          62.3065   85.4540   16.5510 C.ar    1  UNL1        0.0111
     23 C          63.2260   86.6325   16.4263 C.ar    1  UNL1        0.0577
     24 CL         63.2237   87.7004   17.4798 Cl      1  UNL1       -0.0822
     25 C          64.1479   86.7432   15.2483 C.ar    1  UNL1        0.0111
     26 C          64.1502   85.6753   14.1949 C.ar    1  UNL1       -0.0026
     27 C          62.7580   82.0457   13.5993 C.ar    1  UNL1        0.0094
     28 C          61.2915   81.7748   13.7604 C.ar    1  UNL1       -0.0004
     29 C          60.8166   80.3914   14.0936 C.ar    1  UNL1        0.0204
     30 C          61.8081   79.2792   14.2657 C.ar    1  UNL1        0.0989
     31 N          63.2746   79.5501   14.1046 N.ar    1  UNL1       -0.2426
     32 C          63.7496   80.9334   13.7714 C.ar    1  UNL1        0.0954
@<TRIPOS>BOND
     1     1     2    2
     2     2    19    1
     3    19    20    1
     4    20    21   ar
     5    21    22   ar
     6    22    23   ar
     7    23    24    1
     8    23    25   ar
     9    25    26   ar
    10    19    27    1
    11    27    28   ar
    12    28    29   ar
    13    29    30   ar
    14    30    31   ar
    15    31    32   ar
    16     2     3   am
    17     3     4    1
    18     4     5    1
    19     5     6    1
    20     6     9    1
    21     9    10   ar
    22    10    11   ar
    23    11    12   ar
    24    12    15    1
    25    15    16    1
    26    15    17    1
    27    15    18    1
    28    12    13   ar
    29    13    14   ar
    30     6     7    1
    31     7     8    1
    32    26    20   ar
    33    32    27   ar
    34     8     3    1
    35    14     9   ar
@<TRIPOS>MOLECULE
*****
 32 35 0 0 0
SMALL
GASTEIGER

@<TRIPOS>ATOM
      1 O          62.1689   85.6311   12.6063 O.2     1  UNL1       -0.2742
      2 C          62.2304   87.0252   12.0559 C.2     1  UNL1        0.2335
      3 N          63.1781   88.0249   12.6497 N.am    1  UNL1       -0.2755
      4 C          63.2396   89.4189   12.0992 C.3     1  UNL1        0.1148
      5 C          64.1872   90.4186   12.6930 C.3     1  UNL1        0.1123
      6 N          65.0733   90.0243   13.8373 N.pl3   1  UNL1       -0.3041
      7 C          65.0118   88.6303   14.3877 C.3     1  UNL1        0.1123
      8 C          64.0642   87.6305   13.7939 C.3     1  UNL1        0.1148
      9 C          66.0210   91.0239   14.4311 C.ar    1  UNL1        0.0479
     10 C          65.6224   91.8037   15.6490 C.ar    1  UNL1        0.0145
     11 C          66.5700   92.8034   16.2428 C.ar    1  UNL1        0.0051
     12 C          67.9162   93.0233   15.6188 C.ar    1  UNL1        0.0715
     13 C          68.3148   92.2435   14.4010 C.ar    1  UNL1        0.0051
     14 C          67.3672   91.2438   13.8071 C.ar    1  UNL1        0.0145
     15 C          68.8638   94.0229   16.2126 C.3     1  UNL1        0.4186
     16 F          69.8115   95.0227   16.8064 F       1  UNL1       -0.1659
     17 F          68.0947   95.1364   15.5656 F       1  UNL1       -0.1659
     18 F          69.6330   92.9095   16.8596 F       1  UNL1       -0.1659
     19 C          61.3443   87.4195   10.9116 C.3     1  UNL1        0.1226
     20 C          61.3777   86.6363    9.6327 C.ar    1  UNL1       -0.0097
     21 C          60.1448   86.5319    8.7848 C.ar    1  UNL1       -0.0026
     22 C          60.1783   85.7487    7.5059 C.ar    1  UNL1        0.0111
     23 C          61.4446   85.0700    7.0750 C.ar    1  UNL1        0.0577
     24 CL         61.4780   84.2867    5.7961 Cl      1  UNL1       -0.0822
     25 C          62.6775   85.1744    7.9229 C.ar    1  UNL1        0.0111
     26 C          62.6440   85.9575    9.2018 C.ar    1  UNL1       -0.0026
     27 C          60.4249   88.5969   11.0462 C.ar    1  UNL1        0.0094
     28 C          59.4532   88.6632   12.1870 C.ar    1  UNL1       -0.0004
     29 C          58.5337   89.8407   12.3216 C.ar    1  UNL1        0.0204
     30 C          58.5859   90.9519   11.3154 C.ar    1  UNL1        0.0989
     31 N          59.5576   90.8857   10.1746 N.ar    1  UNL1       -0.2426
     32 C          60.4770   89.7082   10.0400 C.ar    1  UNL1        0.0954
@<TRIPOS>BOND
     1     1     2    2
     2     2    19    1
     3    19    20    1
     4    20    21   ar
     5    21    22   ar
     6    22    23   ar
     7    23    24    1
     8    23    25   ar
     9    25    26   ar
    10    19    27    1
    11    27    28   ar
    12    28    29   ar
    13    29    30   ar
    14    30    31   ar
    15    31    32   ar
    16     2     3   am
    17     3     4    1
    18     4     5    1
    19     5     6    1
    20     6     9    1
    21     9    10   ar
    22    10    11   ar
    23    11    12   ar
    24    12    15    1
    25    15    16    1
    26    15    17    1
    27    15    18    1
    28    12    13   ar
    29    13    14   ar
    30     6     7    1
    31     7     8    1
    32    26    20   ar
    33    32    27   ar
    34     8     3    1
    35    14     9   ar
@<TRIPOS>MOLECULE
*****
 32 35 0 0 0
SMALL
GASTEIGER

@<TRIPOS>ATOM
      1 O          65.6667   96.5384   -2.5811 O.2     1  UNL1       -0.2742
      2 C          64.4964   95.6380   -2.8453 C.2     1  UNL1        0.2335
      3 N          63.7652   95.0029   -1.6999 N.am    1  UNL1       -0.2755
      4 C          62.5949   94.1024   -1.9641 C.3     1  UNL1        0.1148
      5 C          61.8636   93.4674   -0.8187 C.3     1  UNL1        0.1123
      6 N          62.3026   93.7328    0.5909 N.pl3   1  UNL1       -0.3041
      7 C          63.4727   94.6332    0.8551 C.3     1  UNL1        0.1123
      8 C          64.2041   95.2683   -0.2903 C.3     1  UNL1        0.1148
      9 C          61.5713   93.0977    1.7362 C.ar    1  UNL1        0.0479
     10 C          62.3045   92.2012    2.6895 C.ar    1  UNL1        0.0145
     11 C          61.5733   91.5661    3.8349 C.ar    1  UNL1        0.0051
     12 C          60.1088   91.8276    4.0271 C.ar    1  UNL1        0.0715
     13 C          59.3756   92.7241    3.0739 C.ar    1  UNL1        0.0051
     14 C          60.1068   93.3592    1.9284 C.ar    1  UNL1        0.0145
     15 C          59.3775   91.1925    5.1724 C.3     1  UNL1        0.4186
     16 F          58.6463   90.5574    6.3179 F       1  UNL1       -0.1659
     17 F          60.6290   90.4670    5.5692 F       1  UNL1       -0.1659
     18 F          58.1261   91.9181    4.7757 F       1  UNL1       -0.1659
     19 C          64.0575   95.3726   -4.2549 C.3     1  UNL1        0.1226
     20 C          62.6154   95.5353   -4.6346 C.ar    1  UNL1       -0.0097
     21 C          61.9639   94.5408   -5.5492 C.ar    1  UNL1       -0.0026
     22 C          60.5220   94.7036   -5.9289 C.ar    1  UNL1        0.0111
     23 C          59.7315   95.8607   -5.3939 C.ar    1  UNL1        0.0577
     24 CL         58.2895   96.0234   -5.7736 Cl      1  UNL1       -0.0822
     25 C          60.3830   96.8551   -4.4793 C.ar    1  UNL1        0.0111
     26 C          61.8250   96.6924   -4.0996 C.ar    1  UNL1       -0.0026
     27 C          65.0605   94.9445   -5.2847 C.ar    1  UNL1        0.0094
     28 C          65.8300   95.9754   -6.0561 C.ar    1  UNL1       -0.0004
     29 C          66.8331   95.5473   -7.0860 C.ar    1  UNL1        0.0204
     30 C          67.0667   94.0883   -7.3445 C.ar    1  UNL1        0.0989
     31 N          66.2972   93.0574   -6.5730 N.ar    1  UNL1       -0.2426
     32 C          65.2941   93.4855   -5.5432 C.ar    1  UNL1        0.0954
@<TRIPOS>BOND
     1     1     2    2
     2     2    19    1
     3    19    20    1
     4    20    21   ar
     5    21    22   ar
     6    22    23   ar
     7    23    24    1
     8    23    25   ar
     9    25    26   ar
    10    19    27    1
    11    27    28   ar
    12    28    29   ar
    13    29    30   ar
    14    30    31   ar
    15    31    32   ar
    16     2     3   am
    17     3     4    1
    18     4     5    1
    19     5     6    1
    20     6     9    1
    21     9    10   ar
    22    10    11   ar
    23    11    12   ar
    24    12    15    1
    25    15    16    1
    26    15    17    1
    27    15    18    1
    28    12    13   ar
    29    13    14   ar
    30     6     7    1
    31     7     8    1
    32    26    20   ar
    33    32    27   ar
    34     8     3    1
    35    14     9   ar
