@<TRIPOS>MOLECULE
*****
 36 39 0 0 0
SMALL
GASTEIGER

@<TRIPOS>ATOM
      1 C          62.7334   89.5525   11.7900 C.ar    1  UNL1        0.1866
      2 O          62.3485   90.4718   10.6690 O.2     1  UNL1       -0.3528
      3 N          62.0025   89.6297    9.4769 N.ar    1  UNL1       -0.0803
      4 C          62.1736   88.1898    9.8611 C.ar    1  UNL1        0.1147
      5 C          62.6253   88.1421   11.2907 C.ar    1  UNL1        0.1114
      6 CL         62.9176   86.9018   12.0820 Cl      1  UNL1       -0.0776
      7 C          61.9350   87.0057    8.9719 C.3     1  UNL1        0.0887
      8 C          63.0917   86.1710    8.5079 C.3     1  UNL1        0.0774
      9 N          62.8530   84.9868    7.6187 N.3     1  UNL1       -0.2970
     10 C          61.4576   84.6374    7.1934 C.3     1  UNL1        0.0714
     11 C          60.3009   85.4721    7.6573 C.3     1  UNL1        0.0486
     12 C          60.5396   86.6563    8.5466 C.3     1  UNL1        0.1149
     13 O          59.0471   86.7266    8.4141 O.3     1  UNL1       -0.3822
     14 H          63.2246   84.1721    8.1071 H       1  UNL1        0.1233
     15 H          58.7381   86.0011    7.8493 H       1  UNL1        0.2107
     16 C          60.2600   87.8649    9.3899 C.ar    1  UNL1        0.0045
     17 C          60.2641   89.2301    8.7687 C.ar    1  UNL1        0.0004
     18 C          59.9845   90.4388    9.6120 C.ar    1  UNL1        0.0317
     19 C          59.7008   90.2820   11.0765 C.ar    1  UNL1        0.1674
     20 F          59.4212   91.4906   11.9198 F       1  UNL1       -0.2018
     21 C          59.6966   88.9167   11.6978 C.ar    1  UNL1        0.1671
     22 F          59.4129   88.7600   13.1623 F       1  UNL1       -0.2018
     23 C          59.9762   87.7082   10.8545 C.ar    1  UNL1        0.0299
     24 C          64.2194   91.0097   13.3450 C.ar    1  UNL1       -0.0174
     25 C          64.6387   91.4273   14.7234 C.ar    1  UNL1       -0.0041
     26 C          63.9914   90.8052   15.9250 C.ar    1  UNL1       -0.0003
     27 C          62.9247   89.7655   15.7483 C.ar    1  UNL1        0.0001
     28 C          62.5054   89.3480   14.3700 C.ar    1  UNL1        0.0028
     29 C          63.1527   89.9701   13.1684 C.ar    1  UNL1        0.0342
     30 C          64.8668   91.6319   12.1434 C.3     1  UNL1        0.0477
     31 C          65.9976   92.6016   12.3185 C.3     1  UNL1        0.0941
     32 C          66.2511   96.3236   10.9648 C.3     1  UNL1        0.0946
     33 C          66.4949   94.8516   11.1182 C.2     1  UNL1        0.2230
     34 O          67.4797   94.1573   10.2249 O.2     1  UNL1       -0.2751
     35 N          65.7538   94.0737   12.1651 N.am    1  UNL1       -0.3040
     36 H          65.1074   94.5294   12.7514 H       1  UNL1        0.1494
@<TRIPOS>BOND
     1    32    33    1
     2    33    34    2
     3    33    35   am
     4    35    31    1
     5    31    30    1
     6    30    24    1
     7    24    25   ar
     8    25    26   ar
     9    26    27   ar
    10    27    28   ar
    11    28    29   ar
    12    29     1    1
    13     1     2   ar
    14     2     3   ar
    15     3     4   ar
    16     7     4    1
    17     7     8    1
    18     8     9    1
    19     9    10    1
    20    10    11    1
    21    11    12    1
    22    12    13    1
    23    12    16    1
    24    16    17   ar
    25    17    18   ar
    26    18    19   ar
    27    19    20    1
    28    19    21   ar
    29    21    22    1
    30    21    23   ar
    31     4     5   ar
    32     5     6    1
    33    29    24   ar
    34     5     1   ar
    35    12     7    1
    36    23    16   ar
    37    35    36    1
    38     9    14    1
    39    13    15    1
@<TRIPOS>MOLECULE
*****
 36 39 0 0 0
SMALL
GASTEIGER

@<TRIPOS>ATOM
      1 C          60.8066   94.3981    0.2470 C.ar    1  UNL1        0.1866
      2 O          60.7555   95.8952    0.1696 O.2     1  UNL1       -0.3528
      3 N          59.6095   96.2744   -0.7209 N.ar    1  UNL1       -0.0803
      4 C          58.9524   95.0117   -1.1939 C.ar    1  UNL1        0.1147
      5 C          59.6922   93.8520   -0.5957 C.ar    1  UNL1        0.1114
      6 CL         59.3736   92.4011   -0.8036 Cl      1  UNL1       -0.0776
      7 C          57.7641   94.9240   -2.1051 C.3     1  UNL1        0.0887
      8 C          56.4023   94.6527   -1.5376 C.3     1  UNL1        0.0774
      9 N          55.2140   94.5650   -2.4488 N.3     1  UNL1       -0.2970
     10 C          55.3875   94.7486   -3.9274 C.3     1  UNL1        0.0714
     11 C          56.7493   95.0199   -4.4948 C.3     1  UNL1        0.0486
     12 C          57.9376   95.1076   -3.5837 C.3     1  UNL1        0.1149
     13 O          58.6042   95.3509   -4.9051 O.3     1  UNL1       -0.3822
     14 H          54.5525   95.2771   -2.1393 H       1  UNL1        0.1233
     15 H          57.9406   95.3230   -5.6120 H       1  UNL1        0.2107
     16 C          59.3574   95.2798   -3.1314 C.ar    1  UNL1        0.0045
     17 C          59.8559   96.6347   -2.7247 C.ar    1  UNL1        0.0004
     18 C          61.2758   96.8069   -2.2724 C.ar    1  UNL1        0.0317
     19 C          62.1970   95.6240   -2.2268 C.ar    1  UNL1        0.1674
     20 F          63.6168   95.7962   -1.7746 F       1  UNL1       -0.2018
     21 C          61.6985   94.2689   -2.6335 C.ar    1  UNL1        0.1671
     22 F          62.6197   93.0861   -2.5879 F       1  UNL1       -0.2018
     23 C          60.2787   94.0968   -3.0858 C.ar    1  UNL1        0.0299
     24 C          61.3492   92.8101    2.2305 C.ar    1  UNL1       -0.0174
     25 C          62.3406   92.0011    3.0131 C.ar    1  UNL1       -0.0041
     26 C          63.7808   91.9708    2.5949 C.ar    1  UNL1       -0.0003
     27 C          64.2296   92.7496    1.3941 C.ar    1  UNL1        0.0001
     28 C          63.2382   93.5587    0.6115 C.ar    1  UNL1        0.0028
     29 C          61.7980   93.5889    1.0297 C.ar    1  UNL1        0.0342
     30 C          59.9090   92.8404    2.6487 C.3     1  UNL1        0.0477
     31 C          59.5507   92.8374    4.1053 C.3     1  UNL1        0.0941
     32 C          58.9847   89.6275    6.3694 C.3     1  UNL1        0.0946
     33 C          58.7010   90.8376    5.5297 C.2     1  UNL1        0.2230
     34 O          57.2839   91.2583    5.2749 O.2     1  UNL1       -0.2751
     35 N          59.8344   91.6272    4.9449 N.am    1  UNL1       -0.3040
     36 H          60.7645   91.3511    5.1121 H       1  UNL1        0.1494
@<TRIPOS>BOND
     1    32    33    1
     2    33    34    2
     3    33    35   am
     4    35    31    1
     5    31    30    1
     6    30    24    1
     7    24    25   ar
     8    25    26   ar
     9    26    27   ar
    10    27    28   ar
    11    28    29   ar
    12    29     1    1
    13     1     2   ar
    14     2     3   ar
    15     3     4   ar
    16     7     4    1
    17     7     8    1
    18     8     9    1
    19     9    10    1
    20    10    11    1
    21    11    12    1
    22    12    13    1
    23    12    16    1
    24    16    17   ar
    25    17    18   ar
    26    18    19   ar
    27    19    20    1
    28    19    21   ar
    29    21    22    1
    30    21    23   ar
    31     4     5   ar
    32     5     6    1
    33    29    24   ar
    34     5     1   ar
    35    12     7    1
    36    23    16   ar
    37    35    36    1
    38     9    14    1
    39    13    15    1
@<TRIPOS>MOLECULE
*****
 36 39 0 0 0
SMALL
GASTEIGER

@<TRIPOS>ATOM
      1 C          62.2860   94.6985   -0.5769 C.ar    1  UNL1        0.1866
      2 O          62.2563   93.3134   -1.1518 O.2     1  UNL1       -0.3528
      3 N          60.9788   93.1586   -1.9224 N.ar    1  UNL1       -0.0803
      4 C          60.2188   94.4482   -1.8238 C.ar    1  UNL1        0.1147
      5 C          61.0268   95.3998   -0.9922 C.ar    1  UNL1        0.1114
      6 CL         60.6429   96.8060   -0.6381 Cl      1  UNL1       -0.0776
      7 C          58.8852   94.7356   -2.4473 C.3     1  UNL1        0.0887
      8 C          58.8072   95.5211   -3.7228 C.3     1  UNL1        0.0774
      9 N          57.4736   95.8084   -4.3463 N.3     1  UNL1       -0.2970
     10 C          56.2179   95.3103   -3.6942 C.3     1  UNL1        0.0714
     11 C          56.2958   94.5248   -2.4187 C.3     1  UNL1        0.0486
     12 C          57.6295   94.2375   -1.7953 C.3     1  UNL1        0.1149
     13 O          56.7283   93.5576   -0.8076 O.3     1  UNL1       -0.3822
     14 H          57.4956   95.4105   -5.2852 H       1  UNL1        0.1233
     15 H          55.8053   93.6620   -1.0868 H       1  UNL1        0.2107
     16 C          58.6503   93.7140   -0.8287 C.ar    1  UNL1        0.0045
     17 C          59.2960   92.3816   -1.0684 C.ar    1  UNL1        0.0004
     18 C          60.3168   91.8581   -0.1019 C.ar    1  UNL1        0.0317
     19 C          60.6917   92.6671    1.1043 C.ar    1  UNL1        0.1674
     20 F          61.7124   92.1436    2.0708 F       1  UNL1       -0.2018
     21 C          60.0458   93.9996    1.3440 C.ar    1  UNL1        0.1671
     22 F          60.4208   94.8086    2.5502 F       1  UNL1       -0.2018
     23 C          59.0252   94.5230    0.3775 C.ar    1  UNL1        0.0299
     24 C          64.3404   96.2695   -0.3291 C.ar    1  UNL1       -0.0174
     25 C          65.4368   96.8512    0.5133 C.ar    1  UNL1       -0.0041
     26 C          65.5752   96.4435    1.9502 C.ar    1  UNL1       -0.0003
     27 C          64.6173   95.4542    2.5447 C.ar    1  UNL1        0.0001
     28 C          63.5209   94.8725    1.7023 C.ar    1  UNL1        0.0028
     29 C          63.3825   95.2802    0.2655 C.ar    1  UNL1        0.0342
     30 C          64.2020   96.6772   -1.7660 C.3     1  UNL1        0.0477
     31 C          64.9155   95.9059   -2.8365 C.3     1  UNL1        0.0941
     32 C          63.9172   92.4303   -4.4715 C.3     1  UNL1        0.0946
     33 C          64.1712   93.8998   -4.3101 C.2     1  UNL1        0.2230
     34 O          63.9349   94.8326   -5.4607 O.2     1  UNL1       -0.2751
     35 N          64.6615   94.4364   -2.9979 N.am    1  UNL1       -0.3040
     36 H          64.8165   93.8242   -2.2427 H       1  UNL1        0.1494
@<TRIPOS>BOND
     1    32    33    1
     2    33    34    2
     3    33    35   am
     4    35    31    1
     5    31    30    1
     6    30    24    1
     7    24    25   ar
     8    25    26   ar
     9    26    27   ar
    10    27    28   ar
    11    28    29   ar
    12    29     1    1
    13     1     2   ar
    14     2     3   ar
    15     3     4   ar
    16     7     4    1
    17     7     8    1
    18     8     9    1
    19     9    10    1
    20    10    11    1
    21    11    12    1
    22    12    13    1
    23    12    16    1
    24    16    17   ar
    25    17    18   ar
    26    18    19   ar
    27    19    20    1
    28    19    21   ar
    29    21    22    1
    30    21    23   ar
    31     4     5   ar
    32     5     6    1
    33    29    24   ar
    34     5     1   ar
    35    12     7    1
    36    23    16   ar
    37    35    36    1
    38     9    14    1
    39    13    15    1
@<TRIPOS>MOLECULE
*****
 36 39 0 0 0
SMALL
GASTEIGER

@<TRIPOS>ATOM
      1 C          61.2112   95.4087   -1.1486 C.ar    1  UNL1        0.1866
      2 O          61.9192   96.3667   -0.2370 O.2     1  UNL1       -0.3528
      3 N          62.0837   95.7013    1.0972 N.ar    1  UNL1       -0.0803
      4 C          61.4774   94.3320    1.0102 C.ar    1  UNL1        0.1147
      5 C          60.9382   94.1512   -0.3778 C.ar    1  UNL1        0.1114
      6 CL         60.2472   92.9277   -0.9028 Cl      1  UNL1       -0.0776
      7 C          61.4203   93.3211    2.1169 C.3     1  UNL1        0.0887
      8 C          60.1408   93.1040    2.8691 C.3     1  UNL1        0.0774
      9 N          60.0838   92.0931    3.9758 N.3     1  UNL1       -0.2970
     10 C          61.3061   91.2992    4.3302 C.3     1  UNL1        0.0714
     11 C          62.5856   91.5163    3.5780 C.3     1  UNL1        0.0486
     12 C          62.6427   92.5272    2.4713 C.3     1  UNL1        0.1149
     13 O          64.0552   92.0238    2.4373 O.3     1  UNL1       -0.3822
     14 H          59.3591   91.4210    3.7236 H       1  UNL1        0.1233
     15 H          64.1725   91.3435    3.1188 H       1  UNL1        0.2107
     16 C          63.1903   93.3634    1.3528 C.ar    1  UNL1        0.0045
     17 C          63.7814   94.7108    1.6436 C.ar    1  UNL1        0.0004
     18 C          64.3291   95.5470    0.5251 C.ar    1  UNL1        0.0317
     19 C          64.2855   95.0354   -0.8844 C.ar    1  UNL1        0.1674
     20 F          64.8331   95.8715   -2.0028 F       1  UNL1       -0.2018
     21 C          63.6943   93.6878   -1.1752 C.ar    1  UNL1        0.1671
     22 F          63.6507   93.1764   -2.5846 F       1  UNL1       -0.2018
     23 C          63.1467   92.8518   -0.0567 C.ar    1  UNL1        0.0299
     24 C          59.4575   96.1280   -2.9255 C.ar    1  UNL1       -0.0174
     25 C          59.0876   96.3827   -4.3567 C.ar    1  UNL1       -0.0041
     26 C          60.1014   96.1729   -5.4421 C.ar    1  UNL1       -0.0003
     27 C          61.4851   95.7084   -5.0965 C.ar    1  UNL1        0.0001
     28 C          61.8550   95.4537   -3.6653 C.ar    1  UNL1        0.0028
     29 C          60.8412   95.6635   -2.5798 C.ar    1  UNL1        0.0342
     30 C          58.4438   96.3378   -1.8400 C.3     1  UNL1        0.0477
     31 C          57.4107   95.2856   -1.5651 C.3     1  UNL1        0.0941
     32 C          56.5014   91.7834   -3.1954 C.3     1  UNL1        0.0946
     33 C          56.7941   92.8343   -2.1658 C.2     1  UNL1        0.2230
     34 O          56.7629   92.4847   -0.7074 O.2     1  UNL1       -0.2751
     35 N          57.1180   94.2348   -2.5946 N.am    1  UNL1       -0.3040
     36 H          57.1385   94.4642   -3.5518 H       1  UNL1        0.1494
@<TRIPOS>BOND
     1    32    33    1
     2    33    34    2
     3    33    35   am
     4    35    31    1
     5    31    30    1
     6    30    24    1
     7    24    25   ar
     8    25    26   ar
     9    26    27   ar
    10    27    28   ar
    11    28    29   ar
    12    29     1    1
    13     1     2   ar
    14     2     3   ar
    15     3     4   ar
    16     7     4    1
    17     7     8    1
    18     8     9    1
    19     9    10    1
    20    10    11    1
    21    11    12    1
    22    12    13    1
    23    12    16    1
    24    16    17   ar
    25    17    18   ar
    26    18    19   ar
    27    19    20    1
    28    19    21   ar
    29    21    22    1
    30    21    23   ar
    31     4     5   ar
    32     5     6    1
    33    29    24   ar
    34     5     1   ar
    35    12     7    1
    36    23    16   ar
    37    35    36    1
    38     9    14    1
    39    13    15    1
@<TRIPOS>MOLECULE
*****
 36 39 0 0 0
SMALL
GASTEIGER

@<TRIPOS>ATOM
      1 C          58.9756   94.2813   -1.4240 C.ar    1  UNL1        0.1866
      2 O          59.6960   93.4720   -2.4613 O.2     1  UNL1       -0.3528
      3 N          61.1050   93.2639   -1.9908 N.ar    1  UNL1       -0.0803
      4 C          61.2555   93.9446   -0.6626 C.ar    1  UNL1        0.1147
      5 C          59.9395   94.5734   -0.3123 C.ar    1  UNL1        0.1114
      6 CL         59.6399   95.3568    0.9313 Cl      1  UNL1       -0.0776
      7 C          62.5029   93.9888    0.1692 C.3     1  UNL1        0.0887
      8 C          62.6422   93.0883    1.3607 C.3     1  UNL1        0.0774
      9 N          63.8896   93.1324    2.1924 N.3     1  UNL1       -0.2970
     10 C          64.9978   94.0772    1.8327 C.3     1  UNL1        0.0714
     11 C          64.8586   94.9777    0.6412 C.3     1  UNL1        0.0486
     12 C          63.6112   94.9335   -0.1905 C.3     1  UNL1        0.1149
     13 O          64.3787   95.9903   -0.9281 O.3     1  UNL1       -0.3822
     14 H          64.2869   92.1931    2.1775 H       1  UNL1        0.1233
     15 H          65.2339   96.1319   -0.4928 H       1  UNL1        0.2107
     16 C          62.6302   95.2563   -1.2785 C.ar    1  UNL1        0.0045
     17 C          61.6207   96.3475   -1.0785 C.ar    1  UNL1        0.0004
     18 C          60.6397   96.6703   -2.1665 C.ar    1  UNL1        0.0317
     19 C          60.6684   95.9018   -3.4544 C.ar    1  UNL1        0.1674
     20 F          59.6875   96.2247   -4.5423 F       1  UNL1       -0.2018
     21 C          61.6780   94.8106   -3.6543 C.ar    1  UNL1        0.1671
     22 F          61.7067   94.0422   -4.9422 F       1  UNL1       -0.2018
     23 C          62.6589   94.4879   -2.5664 C.ar    1  UNL1        0.0299
     24 C          56.4504   93.7019   -1.6179 C.ar    1  UNL1       -0.0174
     25 C          55.0178   94.1420   -1.6811 C.ar    1  UNL1       -0.0041
     26 C          54.6778   95.6014   -1.6134 C.ar    1  UNL1       -0.0003
     27 C          55.7704   96.6207   -1.4826 C.ar    1  UNL1        0.0001
     28 C          57.2029   96.1807   -1.4195 C.ar    1  UNL1        0.0028
     29 C          57.5430   94.7213   -1.4871 C.ar    1  UNL1        0.0342
     30 C          56.7904   92.2426   -1.6856 C.3     1  UNL1        0.0477
     31 C          56.0783   91.3509   -2.6592 C.3     1  UNL1        0.0941
     32 C          57.2401   91.5961   -6.4460 C.3     1  UNL1        0.0946
     33 C          56.5966   91.9410   -5.1357 C.2     1  UNL1        0.2230
     34 O          55.8278   93.2209   -4.9916 O.2     1  UNL1       -0.2751
     35 N          56.7219   91.0060   -3.9695 N.am    1  UNL1       -0.3040
     36 H          57.2265   90.1659   -4.0640 H       1  UNL1        0.1494
@<TRIPOS>BOND
     1    32    33    1
     2    33    34    2
     3    33    35   am
     4    35    31    1
     5    31    30    1
     6    30    24    1
     7    24    25   ar
     8    25    26   ar
     9    26    27   ar
    10    27    28   ar
    11    28    29   ar
    12    29     1    1
    13     1     2   ar
    14     2     3   ar
    15     3     4   ar
    16     7     4    1
    17     7     8    1
    18     8     9    1
    19     9    10    1
    20    10    11    1
    21    11    12    1
    22    12    13    1
    23    12    16    1
    24    16    17   ar
    25    17    18   ar
    26    18    19   ar
    27    19    20    1
    28    19    21   ar
    29    21    22    1
    30    21    23   ar
    31     4     5   ar
    32     5     6    1
    33    29    24   ar
    34     5     1   ar
    35    12     7    1
    36    23    16   ar
    37    35    36    1
    38     9    14    1
    39    13    15    1
@<TRIPOS>MOLECULE
*****
 36 39 0 0 0
SMALL
GASTEIGER

@<TRIPOS>ATOM
      1 C          61.1178   94.8783   -0.6845 C.ar    1  UNL1        0.1866
      2 O          60.2951   96.0711   -1.0722 O.2     1  UNL1       -0.3528
      3 N          59.0387   95.5754   -1.7246 N.ar    1  UNL1       -0.0803
      4 C          59.0849   94.0761   -1.7402 C.ar    1  UNL1        0.1147
      5 C          60.3698   93.6454   -1.0973 C.ar    1  UNL1        0.1114
      6 CL         60.8266   92.2301   -0.9017 Cl      1  UNL1       -0.0776
      7 C          58.0311   93.1673   -2.3002 C.3     1  UNL1        0.0887
      8 C          57.1072   92.4311   -1.3759 C.3     1  UNL1        0.0774
      9 N          56.0535   91.5223   -1.9360 N.3     1  UNL1       -0.2970
     10 C          55.9237   91.3497   -3.4203 C.3     1  UNL1        0.0714
     11 C          56.8475   92.0860   -4.3447 C.3     1  UNL1        0.0486
     12 C          57.9013   92.9948   -3.7846 C.3     1  UNL1        0.1149
     13 O          58.1698   93.1574   -5.2514 O.3     1  UNL1       -0.3822
     14 H          55.1555   91.8707   -1.6004 H       1  UNL1        0.1233
     15 H          57.5465   92.6124   -5.7566 H       1  UNL1        0.2107
     16 C          59.0483   93.9601   -3.7339 C.ar    1  UNL1        0.0045
     17 C          58.7859   95.4368   -3.7231 C.ar    1  UNL1        0.0004
     18 C          59.9329   96.4022   -3.6724 C.ar    1  UNL1        0.0317
     19 C          61.3424   95.8906   -3.6325 C.ar    1  UNL1        0.1674
     20 F          62.4894   96.8559   -3.5818 F       1  UNL1       -0.2018
     21 C          61.6049   94.4137   -3.6433 C.ar    1  UNL1        0.1671
     22 F          63.0144   93.9022   -3.6033 F       1  UNL1       -0.2018
     23 C          60.4579   93.4485   -3.6940 C.ar    1  UNL1        0.0299
     24 C          62.5436   94.7250    1.4820 C.ar    1  UNL1       -0.0174
     25 C          63.8796   94.7591    2.1629 C.ar    1  UNL1       -0.0041
     26 C          65.1261   94.9806    1.3583 C.ar    1  UNL1       -0.0003
     27 C          65.0364   95.1680   -0.1272 C.ar    1  UNL1        0.0001
     28 C          63.7003   95.1339   -0.8081 C.ar    1  UNL1        0.0028
     29 C          62.4539   94.9124   -0.0035 C.ar    1  UNL1        0.0342
     30 C          61.2971   94.5035    2.2866 C.3     1  UNL1        0.0477
     31 C          60.8510   93.1083    2.6096 C.3     1  UNL1        0.0941
     32 C          57.9184   91.7036    4.8849 C.3     1  UNL1        0.0946
     33 C          59.2912   91.9424    4.3294 C.2     1  UNL1        0.2230
     34 O          60.4767   91.2542    4.9382 O.2     1  UNL1       -0.2751
     35 N          59.4783   92.8695    3.1651 N.am    1  UNL1       -0.3040
     36 H          58.7001   93.3212    2.7655 H       1  UNL1        0.1494
@<TRIPOS>BOND
     1    32    33    1
     2    33    34    2
     3    33    35   am
     4    35    31    1
     5    31    30    1
     6    30    24    1
     7    24    25   ar
     8    25    26   ar
     9    26    27   ar
    10    27    28   ar
    11    28    29   ar
    12    29     1    1
    13     1     2   ar
    14     2     3   ar
    15     3     4   ar
    16     7     4    1
    17     7     8    1
    18     8     9    1
    19     9    10    1
    20    10    11    1
    21    11    12    1
    22    12    13    1
    23    12    16    1
    24    16    17   ar
    25    17    18   ar
    26    18    19   ar
    27    19    20    1
    28    19    21   ar
    29    21    22    1
    30    21    23   ar
    31     4     5   ar
    32     5     6    1
    33    29    24   ar
    34     5     1   ar
    35    12     7    1
    36    23    16   ar
    37    35    36    1
    38     9    14    1
    39    13    15    1
@<TRIPOS>MOLECULE
*****
 36 39 0 0 0
SMALL
GASTEIGER

@<TRIPOS>ATOM
      1 C          61.3831   94.8370   -1.2352 C.ar    1  UNL1        0.1866
      2 O          60.3501   95.8501   -0.8398 O.2     1  UNL1       -0.3528
      3 N          59.3425   95.9412   -1.9472 N.ar    1  UNL1       -0.0803
      4 C          59.7528   94.9844   -3.0271 C.ar    1  UNL1        0.1147
      5 C          61.0140   94.3020   -2.5871 C.ar    1  UNL1        0.1114
      6 CL         61.7729   93.2664   -3.3627 Cl      1  UNL1       -0.0776
      7 C          59.0290   94.7510   -4.3200 C.3     1  UNL1        0.0887
      8 C          59.5368   95.3736   -5.5867 C.3     1  UNL1        0.0774
      9 N          58.8130   95.1402   -6.8797 N.3     1  UNL1       -0.2970
     10 C          57.5815   94.2842   -6.9059 C.3     1  UNL1        0.0714
     11 C          57.0737   93.6616   -5.6391 C.3     1  UNL1        0.0486
     12 C          57.7975   93.8950   -4.3462 C.3     1  UNL1        0.1149
     13 O          56.6830   93.0138   -3.8654 O.3     1  UNL1       -0.3822
     14 H          59.4827   94.7122   -7.5189 H       1  UNL1        0.1233
     15 H          56.1145   92.7741   -4.6139 H       1  UNL1        0.2107
     16 C          58.1343   93.8224   -2.8863 C.ar    1  UNL1        0.0045
     17 C          57.6359   94.8812   -1.9481 C.ar    1  UNL1        0.0004
     18 C          57.9727   94.8085   -0.4881 C.ar    1  UNL1        0.0317
     19 C          58.8079   93.6770    0.0335 C.ar    1  UNL1        0.1674
     20 F          59.1446   93.6044    1.4934 F       1  UNL1       -0.2018
     21 C          59.3063   92.6181   -0.9048 C.ar    1  UNL1        0.1671
     22 F          60.1415   91.4866   -0.3832 F       1  UNL1       -0.2018
     23 C          58.9695   92.6908   -2.3647 C.ar    1  UNL1        0.0299
     24 C          63.9287   94.9948   -0.7401 C.ar    1  UNL1       -0.0174
     25 C          65.1215   94.5881    0.0735 C.ar    1  UNL1       -0.0041
     26 C          64.9615   93.6170    1.2055 C.ar    1  UNL1       -0.0003
     27 C          63.6087   93.0525    1.5239 C.ar    1  UNL1        0.0001
     28 C          62.4160   93.4592    0.7103 C.ar    1  UNL1        0.0028
     29 C          62.5760   94.4303   -0.4216 C.ar    1  UNL1        0.0342
     30 C          64.0888   95.9659   -1.8720 C.3     1  UNL1        0.0477
     31 C          64.7699   95.5368   -3.1377 C.3     1  UNL1        0.0941
     32 C          64.8896   92.3002   -5.4312 C.3     1  UNL1        0.0946
     33 C          64.9362   93.7375   -5.0045 C.2     1  UNL1        0.2230
     34 O          65.1957   94.8127   -6.0177 O.2     1  UNL1       -0.2751
     35 N          64.7233   94.0996   -3.5644 N.am    1  UNL1       -0.3040
     36 H          64.5530   93.3939   -2.8994 H       1  UNL1        0.1494
@<TRIPOS>BOND
     1    32    33    1
     2    33    34    2
     3    33    35   am
     4    35    31    1
     5    31    30    1
     6    30    24    1
     7    24    25   ar
     8    25    26   ar
     9    26    27   ar
    10    27    28   ar
    11    28    29   ar
    12    29     1    1
    13     1     2   ar
    14     2     3   ar
    15     3     4   ar
    16     7     4    1
    17     7     8    1
    18     8     9    1
    19     9    10    1
    20    10    11    1
    21    11    12    1
    22    12    13    1
    23    12    16    1
    24    16    17   ar
    25    17    18   ar
    26    18    19   ar
    27    19    20    1
    28    19    21   ar
    29    21    22    1
    30    21    23   ar
    31     4     5   ar
    32     5     6    1
    33    29    24   ar
    34     5     1   ar
    35    12     7    1
    36    23    16   ar
    37    35    36    1
    38     9    14    1
    39    13    15    1
@<TRIPOS>MOLECULE
*****
 36 39 0 0 0
SMALL
GASTEIGER

@<TRIPOS>ATOM
      1 C          60.0612   93.5459   -1.2575 C.ar    1  UNL1        0.1866
      2 O          59.7519   92.6051   -2.3841 O.2     1  UNL1       -0.3528
      3 N          58.3892   92.9450   -2.9110 N.ar    1  UNL1       -0.0803
      4 C          57.8563   94.0959   -2.1101 C.ar    1  UNL1        0.1147
      5 C          58.8897   94.4673   -1.0882 C.ar    1  UNL1        0.1114
      6 CL         58.7722   95.5670   -0.0749 Cl      1  UNL1       -0.0776
      7 C          56.5241   94.7591   -2.2981 C.3     1  UNL1        0.0887
      8 C          55.3769   94.4057   -1.3986 C.3     1  UNL1        0.0774
      9 N          54.0447   95.0688   -1.5866 N.3     1  UNL1       -0.2970
     10 C          53.8596   96.0853   -2.6740 C.3     1  UNL1        0.0714
     11 C          55.0068   96.4386   -3.5735 C.3     1  UNL1        0.0486
     12 C          56.3390   95.7755   -3.3855 C.3     1  UNL1        0.1149
     13 O          56.6548   96.6695   -4.5479 O.3     1  UNL1       -0.3822
     14 H          53.8208   95.5345   -0.7071 H       1  UNL1        0.1233
     15 H          55.8641   97.1766   -4.7899 H       1  UNL1        0.2107
     16 C          57.7810   95.4228   -3.6012 C.ar    1  UNL1        0.0045
     17 C          58.1462   94.2643   -4.4810 C.ar    1  UNL1        0.0004
     18 C          59.5882   93.9116   -4.6966 C.ar    1  UNL1        0.0317
     19 C          60.6649   94.7176   -4.0324 C.ar    1  UNL1        0.1674
     20 F          62.1067   94.3649   -4.2481 F       1  UNL1       -0.2018
     21 C          60.2996   95.8763   -3.1526 C.ar    1  UNL1        0.1671
     22 F          61.3762   96.6822   -2.4884 F       1  UNL1       -0.2018
     23 C          58.8577   96.2289   -2.9370 C.ar    1  UNL1        0.0299
     24 C          61.2798   93.1911    1.0095 C.ar    1  UNL1       -0.0174
     25 C          62.5394   93.2077    1.8237 C.ar    1  UNL1       -0.0041
     26 C          63.8401   93.5956    1.1852 C.ar    1  UNL1       -0.0003
     27 C          63.8812   93.9669   -0.2675 C.ar    1  UNL1        0.0001
     28 C          62.6216   93.9503   -1.0817 C.ar    1  UNL1        0.0028
     29 C          61.3209   93.5624   -0.4432 C.ar    1  UNL1        0.0342
     30 C          59.9790   92.8032    1.6479 C.3     1  UNL1        0.0477
     31 C          59.7581   93.0516    3.1106 C.3     1  UNL1        0.0941
     32 C          59.0043   90.3365    5.9053 C.3     1  UNL1        0.0946
     33 C          58.8032   91.4470    4.9173 C.2     1  UNL1        0.2230
     34 O          57.4464   92.0636    4.7478 O.2     1  UNL1       -0.2751
     35 N          59.9591   91.9410    4.0987 N.am    1  UNL1       -0.3040
     36 H          60.8497   91.5363    4.2099 H       1  UNL1        0.1494
@<TRIPOS>BOND
     1    32    33    1
     2    33    34    2
     3    33    35   am
     4    35    31    1
     5    31    30    1
     6    30    24    1
     7    24    25   ar
     8    25    26   ar
     9    26    27   ar
    10    27    28   ar
    11    28    29   ar
    12    29     1    1
    13     1     2   ar
    14     2     3   ar
    15     3     4   ar
    16     7     4    1
    17     7     8    1
    18     8     9    1
    19     9    10    1
    20    10    11    1
    21    11    12    1
    22    12    13    1
    23    12    16    1
    24    16    17   ar
    25    17    18   ar
    26    18    19   ar
    27    19    20    1
    28    19    21   ar
    29    21    22    1
    30    21    23   ar
    31     4     5   ar
    32     5     6    1
    33    29    24   ar
    34     5     1   ar
    35    12     7    1
    36    23    16   ar
    37    35    36    1
    38     9    14    1
    39    13    15    1
@<TRIPOS>MOLECULE
*****
 36 39 0 0 0
SMALL
GASTEIGER

@<TRIPOS>ATOM
      1 C          58.9286   93.6125   -3.0791 C.ar    1  UNL1        0.1866
      2 O          58.2520   92.5321   -3.8697 O.2     1  UNL1       -0.3528
      3 N          56.7912   92.8632   -3.9514 N.ar    1  UNL1       -0.0803
      4 C          56.5650   94.1482   -3.2113 C.ar    1  UNL1        0.1147
      5 C          57.8860   94.6113   -2.6722 C.ar    1  UNL1        0.1114
      6 CL         58.1228   95.8548   -1.8676 Cl      1  UNL1       -0.0776
      7 C          55.2490   94.8473   -3.0404 C.3     1  UNL1        0.0887
      8 C          54.5078   94.7433   -1.7404 C.3     1  UNL1        0.0774
      9 N          53.1918   95.4424   -1.5695 N.3     1  UNL1       -0.2970
     10 C          52.6169   96.2455   -2.6985 C.3     1  UNL1        0.0714
     11 C          53.3581   96.3495   -3.9984 C.3     1  UNL1        0.0486
     12 C          54.6741   95.6504   -4.1693 C.3     1  UNL1        0.1149
     13 O          54.5402   96.2875   -5.5206 O.3     1  UNL1       -0.3822
     14 H          53.2968   96.0786   -0.7792 H       1  UNL1        0.1233
     15 H          53.7110   96.7892   -5.5608 H       1  UNL1        0.2107
     16 C          55.9437   95.1725   -4.8096 C.ar    1  UNL1        0.0045
     17 C          57.1900   96.0017   -4.7144 C.ar    1  UNL1        0.0004
     18 C          58.4596   95.5238   -5.3546 C.ar    1  UNL1        0.0317
     19 C          58.4828   94.2167   -6.0901 C.ar    1  UNL1        0.1674
     20 F          59.7523   93.7388   -6.7303 F       1  UNL1       -0.2018
     21 C          57.2364   93.3875   -6.1853 C.ar    1  UNL1        0.1671
     22 F          57.2596   92.0804   -6.9207 F       1  UNL1       -0.2018
     23 C          55.9669   93.8654   -5.5451 C.ar    1  UNL1        0.0299
     24 C          60.8862   93.1987   -1.4219 C.ar    1  UNL1       -0.0174
     25 C          62.3486   93.2682   -1.0956 C.ar    1  UNL1       -0.0041
     26 C          63.3158   93.8209   -2.1001 C.ar    1  UNL1       -0.0003
     27 C          62.8206   94.3042   -3.4309 C.ar    1  UNL1        0.0001
     28 C          61.3582   94.2347   -3.7572 C.ar    1  UNL1        0.0028
     29 C          60.3910   93.6820   -2.7527 C.ar    1  UNL1        0.0342
     30 C          59.9190   92.6459   -0.4174 C.3     1  UNL1        0.0477
     31 C          59.3787   93.5288    0.6682 C.3     1  UNL1        0.0941
     32 C          59.7995   92.0977    4.3458 C.3     1  UNL1        0.0946
     33 C          60.1345   92.6784    3.0040 C.2     1  UNL1        0.2230
     34 O          61.5600   92.9894    2.6560 O.2     1  UNL1       -0.2751
     35 N          59.0438   92.9481    2.0100 N.am    1  UNL1       -0.3040
     36 H          58.1082   92.7440    2.2384 H       1  UNL1        0.1494
@<TRIPOS>BOND
     1    32    33    1
     2    33    34    2
     3    33    35   am
     4    35    31    1
     5    31    30    1
     6    30    24    1
     7    24    25   ar
     8    25    26   ar
     9    26    27   ar
    10    27    28   ar
    11    28    29   ar
    12    29     1    1
    13     1     2   ar
    14     2     3   ar
    15     3     4   ar
    16     7     4    1
    17     7     8    1
    18     8     9    1
    19     9    10    1
    20    10    11    1
    21    11    12    1
    22    12    13    1
    23    12    16    1
    24    16    17   ar
    25    17    18   ar
    26    18    19   ar
    27    19    20    1
    28    19    21   ar
    29    21    22    1
    30    21    23   ar
    31     4     5   ar
    32     5     6    1
    33    29    24   ar
    34     5     1   ar
    35    12     7    1
    36    23    16   ar
    37    35    36    1
    38     9    14    1
    39    13    15    1
