@<TRIPOS>MOLECULE
*****
 35 38 0 0 0
SMALL
GASTEIGER

@<TRIPOS>ATOM
      1 C          61.8875   86.2541   10.8315 C.ar    1  UNL1        0.0015
      2 C          60.8093   86.3497    9.7930 C.ar    1  UNL1        0.0012
      3 C          60.4935   87.6721    9.1593 C.ar    1  UNL1        0.0155
      4 C          61.2559   88.8988    9.5640 C.ar    1  UNL1        0.0203
      5 C          62.3341   88.8032   10.6024 C.ar    1  UNL1        0.0845
      6 C          62.6499   87.4808   11.2362 C.ar    1  UNL1        0.0192
      7 C          62.8349   82.2870   12.7326 C.ar    1  UNL1        0.0531
      8 C          62.8239   82.4191   11.2385 C.ar    1  UNL1        0.0045
      9 C          62.5081   83.7414   10.6048 C.ar    1  UNL1        0.0001
     10 C          62.2033   84.9317   11.4652 C.ar    1  UNL1        0.0001
     11 C          62.2143   84.7996   12.9593 C.ar    1  UNL1        0.0001
     12 C          62.5301   83.4772   13.5930 C.ar    1  UNL1        0.0045
     13 N          62.3833   79.7392   12.9670 N.am    1  UNL1       -0.3253
     14 C          63.1507   80.9646   13.3663 C.2     1  UNL1        0.2427
     15 O          64.2339   80.8676   14.3994 O.2     1  UNL1       -0.2704
     16 H          62.5905   78.8713   13.3829 H       1  UNL1        0.1453
     17 H          61.6723   79.8029   12.2890 H       1  UNL1        0.1453
     18 N          63.0965   90.0300   11.0072 N.ar    1  UNL1       -0.2089
     19 C          64.0971   90.1187   12.1212 C.ar    1  UNL1        0.1229
     20 C          64.6112   91.5269   12.1714 C.ar    1  UNL1        0.1236
     21 N          63.9283   92.3087   11.0885 N.ar    1  UNL1       -0.1284
     22 N          62.9922   91.3835   10.3690 N.ar    1  UNL1       -0.0595
     23 C          65.6294   92.0600   13.1354 C.ar    1  UNL1        0.0210
     24 C          66.0666   93.4922   13.0487 C.ar    1  UNL1        0.0015
     25 C          67.0848   94.0253   14.0125 C.ar    1  UNL1        0.0039
     26 C          67.6658   93.1259   15.0632 C.ar    1  UNL1        0.0714
     27 C          67.2286   91.6938   15.1499 C.ar    1  UNL1        0.0039
     28 C          66.2104   91.1607   14.1860 C.ar    1  UNL1        0.0015
     29 C          68.6840   93.6590   16.0272 C.3     1  UNL1        0.4186
     30 F          69.7022   94.1920   16.9911 F       1  UNL1       -0.1659
     31 F          68.9544   92.2655   16.5121 F       1  UNL1       -0.1659
     32 F          68.4136   95.0524   15.5423 F       1  UNL1       -0.1659
     33 C          59.4153   87.7677    8.1209 C.2     1  UNL1        0.0729
     34 O          58.4089   86.6642    7.9809 O.co2   1  UNL1       -0.5446
     35 O          59.3435   88.9667    7.2224 O.co2   1  UNL1       -0.5446
@<TRIPOS>UNITY_ATOM_ATTR
34 1
charge -1
@<TRIPOS>BOND
     1    13    14   am
     2    14    15    2
     3    14     7    1
     4     7     8   ar
     5     8     9   ar
     6     9    10   ar
     7    10     1    1
     8     1     2   ar
     9     2     3   ar
    10     3    33    1
    11    33    34   ar
    12    33    35   ar
    13     3     4   ar
    14     4     5   ar
    15     5    18    1
    16    18    19   ar
    17    19    20   ar
    18    20    23    1
    19    23    24   ar
    20    24    25   ar
    21    25    26   ar
    22    26    29    1
    23    29    30    1
    24    29    31    1
    25    29    32    1
    26    26    27   ar
    27    27    28   ar
    28    20    21   ar
    29    21    22   ar
    30     5     6   ar
    31    10    11   ar
    32    11    12   ar
    33    12     7   ar
    34     6     1   ar
    35    22    18   ar
    36    28    23   ar
    37    13    16    1
    38    13    17    1
@<TRIPOS>MOLECULE
*****
 35 38 0 0 0
SMALL
GASTEIGER

@<TRIPOS>ATOM
      1 C          65.2704   91.2698   13.6986 C.ar    1  UNL1        0.0015
      2 C          64.9343   92.1939   14.8313 C.ar    1  UNL1        0.0012
      3 C          64.2316   91.6658   16.0468 C.ar    1  UNL1        0.0155
      4 C          63.8651   90.2137   16.1296 C.ar    1  UNL1        0.0203
      5 C          64.2012   89.2896   14.9969 C.ar    1  UNL1        0.0845
      6 C          64.9039   89.8177   13.7814 C.ar    1  UNL1        0.0192
      7 C          67.3782   92.8541   10.0521 C.ar    1  UNL1        0.0531
      8 C          65.8904   92.9959   10.1792 C.ar    1  UNL1        0.0045
      9 C          65.1878   92.4678   11.3947 C.ar    1  UNL1        0.0001
     10 C          65.9730   91.7979   12.4831 C.ar    1  UNL1        0.0001
     11 C          67.4608   91.6561   12.3560 C.ar    1  UNL1        0.0001
     12 C          68.1634   92.1842   11.1405 C.ar    1  UNL1        0.0045
     13 N          68.0219   94.8456    8.5128 N.am    1  UNL1       -0.3253
     14 C          68.0809   93.3822    8.8366 C.2     1  UNL1        0.2427
     15 O          68.8424   92.4469    7.9449 O.2     1  UNL1       -0.2704
     16 H          68.4831   95.1922    7.7150 H       1  UNL1        0.1453
     17 H          67.5221   95.4595    9.0980 H       1  UNL1        0.1453
     18 N          63.8347   87.8374   15.0796 N.ar    1  UNL1       -0.2089
     19 C          63.8601   86.8557   13.9458 C.ar    1  UNL1        0.1229
     20 C          63.4196   85.5235   14.4762 C.ar    1  UNL1        0.1236
     21 N          63.1219   85.6819   15.9378 N.ar    1  UNL1       -0.1284
     22 N          63.3785   87.1120   16.3107 N.ar    1  UNL1       -0.0595
     23 C          63.2980   84.2555   13.6840 C.ar    1  UNL1        0.0210
     24 C          63.3960   82.9275   14.3744 C.ar    1  UNL1        0.0015
     25 C          63.2745   81.6596   13.5824 C.ar    1  UNL1        0.0039
     26 C          63.0549   81.7197   12.0997 C.ar    1  UNL1        0.0714
     27 C          62.9568   83.0476   11.4092 C.ar    1  UNL1        0.0039
     28 C          63.0784   84.3156   12.2014 C.ar    1  UNL1        0.0015
     29 C          62.9333   80.4517   11.3075 C.3     1  UNL1        0.4186
     30 F          62.8117   79.1838   10.5153 F       1  UNL1       -0.1659
     31 F          63.3619   81.1836   10.0703 F       1  UNL1       -0.1659
     32 F          62.5047   79.7199   12.5447 F       1  UNL1       -0.1659
     33 C          63.8955   92.5900   17.1796 C.2     1  UNL1        0.0729
     34 O          62.6140   93.3691   17.1567 O.co2   1  UNL1       -0.5446
     35 O          64.8409   92.7349   18.3350 O.co2   1  UNL1       -0.5446
@<TRIPOS>UNITY_ATOM_ATTR
34 1
charge -1
@<TRIPOS>BOND
     1    13    14   am
     2    14    15    2
     3    14     7    1
     4     7     8   ar
     5     8     9   ar
     6     9    10   ar
     7    10     1    1
     8     1     2   ar
     9     2     3   ar
    10     3    33    1
    11    33    34   ar
    12    33    35   ar
    13     3     4   ar
    14     4     5   ar
    15     5    18    1
    16    18    19   ar
    17    19    20   ar
    18    20    23    1
    19    23    24   ar
    20    24    25   ar
    21    25    26   ar
    22    26    29    1
    23    29    30    1
    24    29    31    1
    25    29    32    1
    26    26    27   ar
    27    27    28   ar
    28    20    21   ar
    29    21    22   ar
    30     5     6   ar
    31    10    11   ar
    32    11    12   ar
    33    12     7   ar
    34     6     1   ar
    35    22    18   ar
    36    28    23   ar
    37    13    16    1
    38    13    17    1
@<TRIPOS>MOLECULE
*****
 35 38 0 0 0
SMALL
GASTEIGER

@<TRIPOS>ATOM
      1 C          63.0385   88.5059   12.1068 C.ar    1  UNL1        0.0015
      2 C          63.1100   87.0681   12.5282 C.ar    1  UNL1        0.0012
      3 C          62.3549   86.0233   11.7612 C.ar    1  UNL1        0.0155
      4 C          61.5284   86.4163   10.5728 C.ar    1  UNL1        0.0203
      5 C          61.4569   87.8541   10.1514 C.ar    1  UNL1        0.0845
      6 C          62.2120   88.8989   10.9185 C.ar    1  UNL1        0.0192
      7 C          65.3038   91.6401   14.4079 C.ar    1  UNL1        0.0531
      8 C          65.0383   90.3002   15.0276 C.ar    1  UNL1        0.0045
      9 C          64.2832   89.2555   14.2606 C.ar    1  UNL1        0.0001
     10 C          63.7936   89.5506   12.8739 C.ar    1  UNL1        0.0001
     11 C          64.0591   90.8905   12.2541 C.ar    1  UNL1        0.0001
     12 C          64.8142   91.9353   13.0212 C.ar    1  UNL1        0.0045
     13 N          65.9302   92.7589   16.6675 N.am    1  UNL1       -0.3253
     14 C          66.0589   92.6849   15.1749 C.2     1  UNL1        0.2427
     15 O          66.9427   93.6556   14.4493 O.2     1  UNL1       -0.2704
     16 H          66.4258   93.4447   17.1709 H       1  UNL1        0.1453
     17 H          65.3501   92.1218   17.1438 H       1  UNL1        0.1453
     18 N          60.6304   88.2472    8.9630 N.ar    1  UNL1       -0.2089
     19 C          60.9277   89.3710    8.0150 C.ar    1  UNL1        0.1229
     20 C          59.8425   89.4038    6.9801 C.ar    1  UNL1        0.1236
     21 N          58.8743   88.3003    7.2884 N.ar    1  UNL1       -0.1284
     22 N          59.3613   87.5855    8.5139 N.ar    1  UNL1       -0.0595
     23 C          59.7428   90.3704    5.8373 C.ar    1  UNL1        0.0210
     24 C          58.4096   90.9371    5.4484 C.ar    1  UNL1        0.0015
     25 C          58.3098   91.9036    4.3058 C.ar    1  UNL1        0.0039
     26 C          59.5436   92.3036    3.5520 C.ar    1  UNL1        0.0714
     27 C          60.8768   91.7370    3.9409 C.ar    1  UNL1        0.0039
     28 C          60.9765   90.7704    5.0836 C.ar    1  UNL1        0.0015
     29 C          59.4439   93.2702    2.4093 C.3     1  UNL1        0.4186
     30 F          59.3443   94.2368    1.2666 F       1  UNL1       -0.1659
     31 F          58.6978   92.2454    1.6074 F       1  UNL1       -0.1659
     32 F          60.1900   94.2950    3.2111 F       1  UNL1       -0.1659
     33 C          62.4264   84.5855   12.1826 C.2     1  UNL1        0.0729
     34 O          62.3589   84.2261   13.6374 O.co2   1  UNL1       -0.5446
     35 O          62.5654   83.5071   11.1493 O.co2   1  UNL1       -0.5446
@<TRIPOS>UNITY_ATOM_ATTR
34 1
charge -1
@<TRIPOS>BOND
     1    13    14   am
     2    14    15    2
     3    14     7    1
     4     7     8   ar
     5     8     9   ar
     6     9    10   ar
     7    10     1    1
     8     1     2   ar
     9     2     3   ar
    10     3    33    1
    11    33    34   ar
    12    33    35   ar
    13     3     4   ar
    14     4     5   ar
    15     5    18    1
    16    18    19   ar
    17    19    20   ar
    18    20    23    1
    19    23    24   ar
    20    24    25   ar
    21    25    26   ar
    22    26    29    1
    23    29    30    1
    24    29    31    1
    25    29    32    1
    26    26    27   ar
    27    27    28   ar
    28    20    21   ar
    29    21    22   ar
    30     5     6   ar
    31    10    11   ar
    32    11    12   ar
    33    12     7   ar
    34     6     1   ar
    35    22    18   ar
    36    28    23   ar
    37    13    16    1
    38    13    17    1
@<TRIPOS>MOLECULE
*****
 35 38 0 0 0
SMALL
GASTEIGER

@<TRIPOS>ATOM
      1 C          62.4708   86.2804   11.8727 C.ar    1  UNL1        0.0015
      2 C          63.1566   87.3648   12.6495 C.ar    1  UNL1        0.0012
      3 C          63.0216   88.7955   12.2196 C.ar    1  UNL1        0.0155
      4 C          62.2007   89.1418   11.0129 C.ar    1  UNL1        0.0203
      5 C          61.5149   88.0573   10.2361 C.ar    1  UNL1        0.0845
      6 C          61.6499   86.6266   10.6660 C.ar    1  UNL1        0.0192
      7 C          62.8760   81.9882   13.1624 C.ar    1  UNL1        0.0531
      8 C          62.6843   83.0649   14.1890 C.ar    1  UNL1        0.0045
      9 C          62.5492   84.4956   13.7591 C.ar    1  UNL1        0.0001
     10 C          62.6059   84.8496   12.3026 C.ar    1  UNL1        0.0001
     11 C          62.7976   83.7730   11.2760 C.ar    1  UNL1        0.0001
     12 C          62.9327   82.3422   11.7059 C.ar    1  UNL1        0.0045
     13 N          62.0354   79.5307   13.0986 N.am    1  UNL1       -0.3253
     14 C          63.0111   80.5575   13.5923 C.2     1  UNL1        0.2427
     15 O          64.1218   80.1535   14.5158 O.2     1  UNL1       -0.2704
     16 H          62.1241   78.5917   13.3807 H       1  UNL1        0.1453
     17 H          61.3064   79.7958   12.4924 H       1  UNL1        0.1453
     18 N          60.6939   88.4035    9.0293 N.ar    1  UNL1       -0.2089
     19 C          60.9754   89.5133    8.0602 C.ar    1  UNL1        0.1229
     20 C          59.9028   89.4964    7.0118 C.ar    1  UNL1        0.1236
     21 N          58.9584   88.3760    7.3329 N.ar    1  UNL1       -0.1284
     22 N          59.4473   87.7006    8.5797 N.ar    1  UNL1       -0.0595
     23 C          59.7937   90.4349    5.8468 C.ar    1  UNL1        0.0210
     24 C          58.4545   90.9766    5.4429 C.ar    1  UNL1        0.0015
     25 C          58.3454   91.9151    4.2780 C.ar    1  UNL1        0.0039
     26 C          59.5756   92.3120    3.5168 C.ar    1  UNL1        0.0714
     27 C          60.9148   91.7704    3.9207 C.ar    1  UNL1        0.0039
     28 C          61.0238   90.8318    5.0857 C.ar    1  UNL1        0.0015
     29 C          59.4665   93.2506    2.3518 C.3     1  UNL1        0.4186
     30 F          59.3575   94.1892    1.1868 F       1  UNL1       -0.1659
     31 F          60.1765   94.3113    3.1399 F       1  UNL1       -0.1659
     32 F          58.7566   92.1900    1.5639 F       1  UNL1       -0.1659
     33 C          63.7075   89.8801   12.9965 C.2     1  UNL1        0.0729
     34 O          64.5122   89.5358   14.2147 O.co2   1  UNL1       -0.5446
     35 O          63.5887   91.3087   12.5552 O.co2   1  UNL1       -0.5446
@<TRIPOS>UNITY_ATOM_ATTR
34 1
charge -1
@<TRIPOS>BOND
     1    13    14   am
     2    14    15    2
     3    14     7    1
     4     7     8   ar
     5     8     9   ar
     6     9    10   ar
     7    10     1    1
     8     1     2   ar
     9     2     3   ar
    10     3    33    1
    11    33    34   ar
    12    33    35   ar
    13     3     4   ar
    14     4     5   ar
    15     5    18    1
    16    18    19   ar
    17    19    20   ar
    18    20    23    1
    19    23    24   ar
    20    24    25   ar
    21    25    26   ar
    22    26    29    1
    23    29    30    1
    24    29    31    1
    25    29    32    1
    26    26    27   ar
    27    27    28   ar
    28    20    21   ar
    29    21    22   ar
    30     5     6   ar
    31    10    11   ar
    32    11    12   ar
    33    12     7   ar
    34     6     1   ar
    35    22    18   ar
    36    28    23   ar
    37    13    16    1
    38    13    17    1
@<TRIPOS>MOLECULE
*****
 35 38 0 0 0
SMALL
GASTEIGER

@<TRIPOS>ATOM
      1 C          60.1326   91.1327    4.6070 C.ar    1  UNL1        0.0015
      2 C          58.6929   91.5378    4.4920 C.ar    1  UNL1        0.0012
      3 C          57.6644   90.9140    5.3882 C.ar    1  UNL1        0.0155
      4 C          58.0756   89.8851    6.3993 C.ar    1  UNL1        0.0203
      5 C          59.5153   89.4801    6.5142 C.ar    1  UNL1        0.0845
      6 C          60.5438   90.1039    5.6181 C.ar    1  UNL1        0.0192
      7 C          63.2181   93.0041    1.9185 C.ar    1  UNL1        0.0531
      8 C          63.5825   91.8255    2.7717 C.ar    1  UNL1        0.0045
      9 C          62.5540   91.2017    3.6679 C.ar    1  UNL1        0.0001
     10 C          61.1611   91.7565    3.7108 C.ar    1  UNL1        0.0001
     11 C          60.7967   92.9352    2.8577 C.ar    1  UNL1        0.0001
     12 C          61.8252   93.5589    1.9615 C.ar    1  UNL1        0.0045
     13 N          65.5941   92.9875    0.8678 N.am    1  UNL1       -0.3253
     14 C          64.2466   93.6279    1.0224 C.2     1  UNL1        0.2427
     15 O          63.9275   94.8921    0.2809 O.2     1  UNL1       -0.2704
     16 H          66.2691   93.3969    0.2796 H       1  UNL1        0.1453
     17 H          65.8035   92.1577    1.3545 H       1  UNL1        0.1453
     18 N          59.9265   88.4512    7.5254 N.ar    1  UNL1       -0.2089
     19 C          60.8577   88.6728    8.6802 C.ar    1  UNL1        0.1229
     20 C          60.9854   87.3786    9.4277 C.ar    1  UNL1        0.1236
     21 N          60.1331   86.3571    8.7348 N.ar    1  UNL1       -0.1284
     22 N          59.4787   87.0200    7.5591 N.ar    1  UNL1       -0.0595
     23 C          61.8191   87.1467   10.6529 C.ar    1  UNL1        0.0210
     24 C          62.4823   88.3040   11.3390 C.ar    1  UNL1        0.0015
     25 C          63.3159   88.0722   12.5642 C.ar    1  UNL1        0.0039
     26 C          63.4863   86.6828   13.1034 C.ar    1  UNL1        0.0714
     27 C          62.8232   85.5254   12.4174 C.ar    1  UNL1        0.0039
     28 C          61.9896   85.7574   11.1921 C.ar    1  UNL1        0.0015
     29 C          64.3200   86.4508   14.3286 C.3     1  UNL1        0.4186
     30 F          65.1536   86.2188   15.5539 F       1  UNL1       -0.1659
     31 F          64.5317   87.9296   14.4646 F       1  UNL1       -0.1659
     32 F          64.1083   84.9721   14.1927 F       1  UNL1       -0.1659
     33 C          56.2247   91.3191    5.2732 C.2     1  UNL1        0.0729
     34 O          55.1585   90.4934    5.9301 O.co2   1  UNL1       -0.5446
     35 O          55.8512   92.5498    4.5014 O.co2   1  UNL1       -0.5446
@<TRIPOS>UNITY_ATOM_ATTR
34 1
charge -1
@<TRIPOS>BOND
     1    13    14   am
     2    14    15    2
     3    14     7    1
     4     7     8   ar
     5     8     9   ar
     6     9    10   ar
     7    10     1    1
     8     1     2   ar
     9     2     3   ar
    10     3    33    1
    11    33    34   ar
    12    33    35   ar
    13     3     4   ar
    14     4     5   ar
    15     5    18    1
    16    18    19   ar
    17    19    20   ar
    18    20    23    1
    19    23    24   ar
    20    24    25   ar
    21    25    26   ar
    22    26    29    1
    23    29    30    1
    24    29    31    1
    25    29    32    1
    26    26    27   ar
    27    27    28   ar
    28    20    21   ar
    29    21    22   ar
    30     5     6   ar
    31    10    11   ar
    32    11    12   ar
    33    12     7   ar
    34     6     1   ar
    35    22    18   ar
    36    28    23   ar
    37    13    16    1
    38    13    17    1
@<TRIPOS>MOLECULE
*****
 35 38 0 0 0
SMALL
GASTEIGER

@<TRIPOS>ATOM
      1 C          64.7631   90.4535   13.5029 C.ar    1  UNL1        0.0015
      2 C          63.8402   91.0806   12.5005 C.ar    1  UNL1        0.0012
      3 C          62.7993   90.2463   11.8146 C.ar    1  UNL1        0.0155
      4 C          62.6813   88.7849   12.1311 C.ar    1  UNL1        0.0203
      5 C          63.6042   88.1577   13.1335 C.ar    1  UNL1        0.0845
      6 C          64.6451   88.9920   13.8194 C.ar    1  UNL1        0.0192
      7 C          67.8858   92.9563   15.5606 C.ar    1  UNL1        0.0531
      8 C          66.5489   92.7446   16.2069 C.ar    1  UNL1        0.0045
      9 C          65.5080   91.9103   15.5210 C.ar    1  UNL1        0.0001
     10 C          65.8040   91.2877   14.1888 C.ar    1  UNL1        0.0001
     11 C          67.1409   91.4995   13.5425 C.ar    1  UNL1        0.0001
     12 C          68.1818   92.3338   14.2284 C.ar    1  UNL1        0.0045
     13 N          70.1441   93.1387   16.8322 N.am    1  UNL1       -0.3253
     14 C          68.9268   93.7906   16.2465 C.2     1  UNL1        0.2427
     15 O          68.7504   95.2768   16.3466 O.2     1  UNL1       -0.2704
     16 H          70.8273   93.6863   17.2824 H       1  UNL1        0.1453
     17 H          70.2599   92.1633   16.7665 H       1  UNL1        0.1453
     18 N          63.4863   86.6962   13.4500 N.ar    1  UNL1       -0.2089
     19 C          63.3567   85.5853   12.4505 C.ar    1  UNL1        0.1229
     20 C          63.2675   84.2915   13.2044 C.ar    1  UNL1        0.1236
     21 N          63.3420   84.6029   14.6699 N.ar    1  UNL1       -0.1284
     22 N          63.4772   86.0891   14.8217 N.ar    1  UNL1       -0.0595
     23 C          63.1283   82.9261   12.5992 C.ar    1  UNL1        0.0210
     24 C          63.5191   82.6962   11.1693 C.ar    1  UNL1        0.0015
     25 C          63.3799   81.3309   10.5640 C.ar    1  UNL1        0.0039
     26 C          62.8499   80.1954   11.3887 C.ar    1  UNL1        0.0714
     27 C          62.4591   80.4253   12.8184 C.ar    1  UNL1        0.0039
     28 C          62.5983   81.7907   13.4237 C.ar    1  UNL1        0.0015
     29 C          62.7107   78.8300   10.7834 C.3     1  UNL1        0.4186
     30 F          62.5715   77.4646   10.1781 F       1  UNL1       -0.1659
     31 F          62.7282   79.4364    9.4115 F       1  UNL1       -0.1659
     32 F          62.6931   78.2237   12.1552 F       1  UNL1       -0.1659
     33 C          61.8763   90.8735   10.8122 C.2     1  UNL1        0.0729
     34 O          62.4380   91.5657    9.6058 O.co2   1  UNL1       -0.5446
     35 O          60.3917   90.8086   11.0162 O.co2   1  UNL1       -0.5446
@<TRIPOS>UNITY_ATOM_ATTR
34 1
charge -1
@<TRIPOS>BOND
     1    13    14   am
     2    14    15    2
     3    14     7    1
     4     7     8   ar
     5     8     9   ar
     6     9    10   ar
     7    10     1    1
     8     1     2   ar
     9     2     3   ar
    10     3    33    1
    11    33    34   ar
    12    33    35   ar
    13     3     4   ar
    14     4     5   ar
    15     5    18    1
    16    18    19   ar
    17    19    20   ar
    18    20    23    1
    19    23    24   ar
    20    24    25   ar
    21    25    26   ar
    22    26    29    1
    23    29    30    1
    24    29    31    1
    25    29    32    1
    26    26    27   ar
    27    27    28   ar
    28    20    21   ar
    29    21    22   ar
    30     5     6   ar
    31    10    11   ar
    32    11    12   ar
    33    12     7   ar
    34     6     1   ar
    35    22    18   ar
    36    28    23   ar
    37    13    16    1
    38    13    17    1
@<TRIPOS>MOLECULE
*****
 35 38 0 0 0
SMALL
GASTEIGER

@<TRIPOS>ATOM
      1 C          60.2720   91.2217    4.6890 C.ar    1  UNL1        0.0015
      2 C          58.8044   91.4404    4.4693 C.ar    1  UNL1        0.0012
      3 C          57.8108   90.9150    5.4627 C.ar    1  UNL1        0.0155
      4 C          58.2848   90.1708    6.6757 C.ar    1  UNL1        0.0203
      5 C          59.7524   89.9520    6.8953 C.ar    1  UNL1        0.0845
      6 C          60.7460   90.4775    5.9020 C.ar    1  UNL1        0.0192
      7 C          63.2526   92.7980    1.7089 C.ar    1  UNL1        0.0531
      8 C          61.8720   93.3813    1.7691 C.ar    1  UNL1        0.0045
      9 C          60.8785   92.8559    2.7624 C.ar    1  UNL1        0.0001
     10 C          61.2655   91.7471    3.6956 C.ar    1  UNL1        0.0001
     11 C          62.6461   91.1639    3.6355 C.ar    1  UNL1        0.0001
     12 C          63.6397   91.6893    2.6421 C.ar    1  UNL1        0.0045
     13 N          65.6985   92.9736    0.8506 N.am    1  UNL1       -0.3253
     14 C          64.2462   93.3235    0.7156 C.2     1  UNL1        0.2427
     15 O          63.7874   94.1989   -0.4128 O.2     1  UNL1       -0.2704
     16 H          66.3506   93.3185    0.1986 H       1  UNL1        0.1453
     17 H          65.9996   92.3990    1.5911 H       1  UNL1        0.1453
     18 N          60.2265   89.2078    8.1084 N.ar    1  UNL1       -0.2089
     19 C          60.9702   87.9052    8.1088 C.ar    1  UNL1        0.1229
     20 C          61.2435   87.5279    9.5346 C.ar    1  UNL1        0.1236
     21 N          60.6686   88.5974   10.4155 N.ar    1  UNL1       -0.1284
     22 N          60.0402   89.6356    9.5340 N.ar    1  UNL1       -0.0595
     23 C          61.9649   86.2972    9.9983 C.ar    1  UNL1        0.0210
     24 C          61.9172   85.8997   11.4439 C.ar    1  UNL1        0.0015
     25 C          62.6386   84.6691   11.9076 C.ar    1  UNL1        0.0039
     26 C          63.4077   83.8358   10.9256 C.ar    1  UNL1        0.0714
     27 C          63.4553   84.2332    9.4800 C.ar    1  UNL1        0.0039
     28 C          62.7339   85.4639    9.0164 C.ar    1  UNL1        0.0015
     29 C          64.1291   82.6051   11.3892 C.3     1  UNL1        0.4186
     30 F          64.8505   81.3744   11.8529 F       1  UNL1       -0.1659
     31 F          63.8161   81.9308   10.0864 F       1  UNL1       -0.1659
     32 F          64.4420   83.2794   12.6920 F       1  UNL1       -0.1659
     33 C          56.3432   91.1337    5.2430 C.2     1  UNL1        0.0729
     34 O          55.3436   90.2237    5.8932 O.co2   1  UNL1       -0.5446
     35 O          55.8751   92.2625    4.3731 O.co2   1  UNL1       -0.5446
@<TRIPOS>UNITY_ATOM_ATTR
34 1
charge -1
@<TRIPOS>BOND
     1    13    14   am
     2    14    15    2
     3    14     7    1
     4     7     8   ar
     5     8     9   ar
     6     9    10   ar
     7    10     1    1
     8     1     2   ar
     9     2     3   ar
    10     3    33    1
    11    33    34   ar
    12    33    35   ar
    13     3     4   ar
    14     4     5   ar
    15     5    18    1
    16    18    19   ar
    17    19    20   ar
    18    20    23    1
    19    23    24   ar
    20    24    25   ar
    21    25    26   ar
    22    26    29    1
    23    29    30    1
    24    29    31    1
    25    29    32    1
    26    26    27   ar
    27    27    28   ar
    28    20    21   ar
    29    21    22   ar
    30     5     6   ar
    31    10    11   ar
    32    11    12   ar
    33    12     7   ar
    34     6     1   ar
    35    22    18   ar
    36    28    23   ar
    37    13    16    1
    38    13    17    1
@<TRIPOS>MOLECULE
*****
 35 38 0 0 0
SMALL
GASTEIGER

@<TRIPOS>ATOM
      1 C          62.7254   89.5627   10.8608 C.ar    1  UNL1        0.0015
      2 C          61.6600   89.7815    9.8280 C.ar    1  UNL1        0.0012
      3 C          60.7963   88.6370    9.3872 C.ar    1  UNL1        0.0155
      4 C          60.9982   87.2737    9.9793 C.ar    1  UNL1        0.0203
      5 C          62.0637   87.0549   11.0121 C.ar    1  UNL1        0.0845
      6 C          62.9273   88.1994   11.4529 C.ar    1  UNL1        0.0192
      7 C          65.3164   92.9962   12.1831 C.ar    1  UNL1        0.0531
      8 C          64.8750   92.8970   10.7530 C.ar    1  UNL1        0.0045
      9 C          64.0114   91.7525   10.3122 C.ar    1  UNL1        0.0001
     10 C          63.5891   90.7072   11.3016 C.ar    1  UNL1        0.0001
     11 C          64.0305   90.8063   12.7317 C.ar    1  UNL1        0.0001
     12 C          64.8941   91.9508   13.1725 C.ar    1  UNL1        0.0045
     13 N          66.6854   95.1303   11.6164 N.am    1  UNL1       -0.3253
     14 C          66.1800   94.1406   12.6239 C.2     1  UNL1        0.2427
     15 O          66.5382   94.2955   14.0722 O.2     1  UNL1       -0.2704
     16 H          67.2523   95.8814   11.9057 H       1  UNL1        0.1453
     17 H          66.4503   95.0286   10.6658 H       1  UNL1        0.1453
     18 N          62.2655   85.6915   11.6042 N.ar    1  UNL1       -0.2089
     19 C          62.3582   84.4036   10.8409 C.ar    1  UNL1        0.1229
     20 C          62.5601   83.2929   11.8285 C.ar    1  UNL1        0.1236
     21 N          62.5923   83.8943   13.2024 N.ar    1  UNL1       -0.1284
     22 N          62.4103   85.3768   13.0637 N.ar    1  UNL1       -0.0595
     23 C          62.7045   81.8364   11.5001 C.ar    1  UNL1        0.0210
     24 C          63.0182   81.4117   10.0961 C.ar    1  UNL1        0.0015
     25 C          63.1626   79.9553    9.7676 C.ar    1  UNL1        0.0039
     26 C          62.9933   78.9236   10.8432 C.ar    1  UNL1        0.0714
     27 C          62.6797   79.3482   12.2472 C.ar    1  UNL1        0.0039
     28 C          62.5353   80.8047   12.5756 C.ar    1  UNL1        0.0015
     29 C          63.1378   77.4671   10.5148 C.3     1  UNL1        0.4186
     30 F          63.2822   76.0106   10.1864 F       1  UNL1       -0.1659
     31 F          63.8718   77.8237    9.2562 F       1  UNL1       -0.1659
     32 F          62.4037   77.1105   11.7733 F       1  UNL1       -0.1659
     33 C          59.7308   88.8559    8.3543 C.2     1  UNL1        0.0729
     34 O          58.6165   87.8630    8.2042 O.co2   1  UNL1       -0.5446
     35 O          59.7795   90.0677    7.4716 O.co2   1  UNL1       -0.5446
@<TRIPOS>UNITY_ATOM_ATTR
34 1
charge -1
@<TRIPOS>BOND
     1    13    14   am
     2    14    15    2
     3    14     7    1
     4     7     8   ar
     5     8     9   ar
     6     9    10   ar
     7    10     1    1
     8     1     2   ar
     9     2     3   ar
    10     3    33    1
    11    33    34   ar
    12    33    35   ar
    13     3     4   ar
    14     4     5   ar
    15     5    18    1
    16    18    19   ar
    17    19    20   ar
    18    20    23    1
    19    23    24   ar
    20    24    25   ar
    21    25    26   ar
    22    26    29    1
    23    29    30    1
    24    29    31    1
    25    29    32    1
    26    26    27   ar
    27    27    28   ar
    28    20    21   ar
    29    21    22   ar
    30     5     6   ar
    31    10    11   ar
    32    11    12   ar
    33    12     7   ar
    34     6     1   ar
    35    22    18   ar
    36    28    23   ar
    37    13    16    1
    38    13    17    1
@<TRIPOS>MOLECULE
*****
 35 38 0 0 0
SMALL
GASTEIGER

@<TRIPOS>ATOM
      1 C          72.5968   79.0887   12.6546 C.ar    1  UNL1        0.0015
      2 C          72.9441   79.7630   13.9486 C.ar    1  UNL1        0.0012
      3 C          72.9204   78.9841   15.2303 C.ar    1  UNL1        0.0155
      4 C          72.5493   77.5308   15.2179 C.ar    1  UNL1        0.0203
      5 C          72.2020   76.8565   13.9238 C.ar    1  UNL1        0.0845
      6 C          72.2257   77.6354   12.6422 C.ar    1  UNL1        0.0192
      7 C          72.6681   81.4256    8.8096 C.ar    1  UNL1        0.0531
      8 C          72.2591   79.9825    8.8027 C.ar    1  UNL1        0.0045
      9 C          72.2353   79.2036   10.0843 C.ar    1  UNL1        0.0001
     10 C          72.6206   79.8677   11.3729 C.ar    1  UNL1        0.0001
     11 C          73.0297   81.3108   11.3798 C.ar    1  UNL1        0.0001
     12 C          73.0534   82.0898   10.0981 C.ar    1  UNL1        0.0045
     13 N          73.6324   81.8103    6.4280 N.am    1  UNL1       -0.3253
     14 C          72.6919   82.2046    7.5279 C.2     1  UNL1        0.2427
     15 O          71.7752   83.3778    7.3462 O.2     1  UNL1       -0.2704
     16 H          73.6480   82.3216    5.5868 H       1  UNL1        0.1453
     17 H          74.2341   81.0403    6.5472 H       1  UNL1        0.1453
     18 N          71.8309   75.4031   13.9114 N.ar    1  UNL1       -0.2089
     19 C          71.8577   74.4762   15.0904 C.ar    1  UNL1        0.1229
     20 C          71.4112   73.1218   14.6254 C.ar    1  UNL1        0.1236
     21 N          71.1084   73.2116   13.1590 N.ar    1  UNL1       -0.1284
     22 N          71.3678   74.6216   12.7177 N.ar    1  UNL1       -0.0595
     23 C          71.2889   71.8932   15.4772 C.ar    1  UNL1        0.0210
     24 C          71.4751   70.5357   14.8668 C.ar    1  UNL1        0.0015
     25 C          71.3528   69.3071   15.7185 C.ar    1  UNL1        0.0039
     26 C          71.0443   69.4360   17.1809 C.ar    1  UNL1        0.0714
     27 C          70.8581   70.7934   17.7913 C.ar    1  UNL1        0.0039
     28 C          70.9804   72.0220   16.9395 C.ar    1  UNL1        0.0015
     29 C          70.9220   68.2074   18.0327 C.3     1  UNL1        0.4186
     30 F          70.7997   66.9788   18.8846 F       1  UNL1       -0.1659
     31 F          70.1336   68.9866   19.0433 F       1  UNL1       -0.1659
     32 F          71.7104   67.4283   17.0221 F       1  UNL1       -0.1659
     33 C          73.2677   79.6585   16.5244 C.2     1  UNL1        0.0729
     34 O          73.6316   81.1136   16.5377 O.co2   1  UNL1       -0.5446
     35 O          73.2512   78.8778   17.8050 O.co2   1  UNL1       -0.5446
@<TRIPOS>UNITY_ATOM_ATTR
34 1
charge -1
@<TRIPOS>BOND
     1    13    14   am
     2    14    15    2
     3    14     7    1
     4     7     8   ar
     5     8     9   ar
     6     9    10   ar
     7    10     1    1
     8     1     2   ar
     9     2     3   ar
    10     3    33    1
    11    33    34   ar
    12    33    35   ar
    13     3     4   ar
    14     4     5   ar
    15     5    18    1
    16    18    19   ar
    17    19    20   ar
    18    20    23    1
    19    23    24   ar
    20    24    25   ar
    21    25    26   ar
    22    26    29    1
    23    29    30    1
    24    29    31    1
    25    29    32    1
    26    26    27   ar
    27    27    28   ar
    28    20    21   ar
    29    21    22   ar
    30     5     6   ar
    31    10    11   ar
    32    11    12   ar
    33    12     7   ar
    34     6     1   ar
    35    22    18   ar
    36    28    23   ar
    37    13    16    1
    38    13    17    1
