@<TRIPOS>MOLECULE
*****
 33 36 0 0 0
SMALL
GASTEIGER

@<TRIPOS>ATOM
      1 N          65.5675   92.3195   12.3847 N.pl3   1  UNL1       -0.2567
      2 C          64.3389   91.6302   11.8696 C.ar    1  UNL1        0.1408
      3 N          64.2090   91.7804   10.3828 N.ar    1  UNL1       -0.2290
      4 C          63.0451   91.1632    9.6656 C.ar    1  UNL1        0.0961
      5 C          62.0112   90.3958   10.4351 C.ar    1  UNL1        0.0010
      6 C          62.1411   90.2456   11.9218 C.ar    1  UNL1        0.0047
      7 C          63.3050   90.8628   12.6391 C.ar    1  UNL1        0.0855
      8 C          63.2444   90.5952   14.1138 C.2     1  UNL1        0.2556
      9 O          62.0702   89.7870   14.5808 O.2     1  UNL1       -0.2695
     10 N          64.2027   91.0288   15.1832 N.am    1  UNL1       -0.2508
     11 C          63.8601   90.5969   16.5782 C.3     1  UNL1        0.1204
     12 C          65.4583   91.8372   15.0420 C.ar    1  UNL1        0.0864
     13 C          66.1259   92.0487   16.3685 C.ar    1  UNL1        0.0217
     14 C          67.4010   92.8347   16.4495 C.ar    1  UNL1        0.0510
     15 C          68.0084   93.4091   15.2041 C.ar    1  UNL1        0.2235
     16 F          69.2834   94.1950   15.2850 F       1  UNL1       -0.1832
     17 N          67.3408   93.1975   13.8776 N.ar    1  UNL1       -0.2014
     18 C          66.0658   92.4116   13.7966 C.ar    1  UNL1        0.1526
     19 C          66.1659   94.4516   11.0259 C.3     1  UNL1        0.0237
     20 C          66.4093   93.0076   11.3513 C.3     1  UNL1        0.0984
     21 C          60.8473   89.7785    9.7177 C.3     1  UNL1        0.0752
     22 C          60.5380   88.3227    9.9040 C.3     1  UNL1        0.2101
     23 O          61.3653   87.2847    9.2053 O.3     1  UNL1       -0.4754
     24 C          62.0351   86.2014    9.9976 C.ar    1  UNL1        0.1345
     25 C          61.9269   86.1902   11.4937 C.ar    1  UNL1        0.0366
     26 C          62.5967   85.1069   12.2860 C.ar    1  UNL1        0.0042
     27 C          63.3747   84.0347   11.5822 C.ar    1  UNL1        0.0139
     28 C          63.4829   84.0459   10.0862 C.ar    1  UNL1       -0.0001
     29 C          62.8131   85.1293    9.2939 C.ar    1  UNL1        0.0121
     30 C          62.9213   85.1405    7.7978 C.3     1  UNL1        0.0342
     31 C          64.0445   82.9514   12.3745 C.2     1  UNL1        0.0729
     32 O          64.9267   81.9537   11.6844 O.co2   1  UNL1       -0.5446
     33 O          63.8322   82.8658   13.8569 O.co2   1  UNL1       -0.5446
@<TRIPOS>UNITY_ATOM_ATTR
32 1
charge -1
@<TRIPOS>BOND
     1    19    20    1
     2    20     1    1
     3     1     2    1
     4     2     3   ar
     5     3     4   ar
     6     4     5   ar
     7     5    21    1
     8    21    22    1
     9    22    23    1
    10    23    24    1
    11    24    25   ar
    12    25    26   ar
    13    26    27   ar
    14    27    31    1
    15    31    32   ar
    16    31    33   ar
    17    27    28   ar
    18    28    29   ar
    19    29    30    1
    20     5     6   ar
    21     6     7   ar
    22     7     8    1
    23     8     9    2
    24     8    10   am
    25    10    11    1
    26    10    12    1
    27    12    13   ar
    28    13    14   ar
    29    14    15   ar
    30    15    16    1
    31    15    17   ar
    32    17    18   ar
    33    18     1    1
    34     7     2   ar
    35    18    12   ar
    36    29    24   ar
@<TRIPOS>MOLECULE
*****
 33 36 0 0 0
SMALL
GASTEIGER

@<TRIPOS>ATOM
      1 N          64.6288   90.4812   13.8138 N.pl3   1  UNL1       -0.2567
      2 C          63.7519   90.3433   12.6047 C.ar    1  UNL1        0.1408
      3 N          62.8260   89.1699   12.7301 N.ar    1  UNL1       -0.2290
      4 C          61.8620   88.8538   11.6253 C.ar    1  UNL1        0.0961
      5 C          61.8238   89.7111   10.3950 C.ar    1  UNL1        0.0010
      6 C          62.7497   90.8845   10.2696 C.ar    1  UNL1        0.0047
      7 C          63.7137   91.2006   11.3744 C.ar    1  UNL1        0.0855
      8 C          64.5430   92.4076   11.0495 C.2     1  UNL1        0.2556
      9 O          64.2630   93.0520    9.7242 O.2     1  UNL1       -0.2695
     10 N          65.6153   93.0553   11.8744 N.am    1  UNL1       -0.2508
     11 C          66.2658   94.2618   11.2651 C.3     1  UNL1        0.1204
     12 C          66.1232   92.6560   13.2282 C.ar    1  UNL1        0.0864
     13 C          67.2084   93.5777   13.7001 C.ar    1  UNL1        0.0217
     14 C          67.8547   93.3538   15.0352 C.ar    1  UNL1        0.0510
     15 C          67.4157   92.2083   15.8982 C.ar    1  UNL1        0.2235
     16 F          68.0618   91.9844   17.2333 F       1  UNL1       -0.1832
     17 N          66.3304   91.2866   15.4263 N.ar    1  UNL1       -0.2014
     18 C          65.6842   91.5104   14.0914 C.ar    1  UNL1        0.1526
     19 C          63.4315   89.7041   15.9846 C.3     1  UNL1        0.0237
     20 C          64.4233   89.4540   14.8874 C.3     1  UNL1        0.0984
     21 C          60.8597   89.3949    9.2902 C.3     1  UNL1        0.0752
     22 C          60.1645   88.0661    9.2589 C.3     1  UNL1        0.2101
     23 O          60.8418   86.8796    8.6397 O.3     1  UNL1       -0.4754
     24 C          61.6634   85.9567    9.4901 C.ar    1  UNL1        0.1345
     25 C          61.4878   85.9540   10.9798 C.ar    1  UNL1        0.0366
     26 C          62.3094   85.0311   11.8302 C.ar    1  UNL1        0.0042
     27 C          63.3066   84.1108   11.1909 C.ar    1  UNL1        0.0139
     28 C          63.4822   84.1135    9.7012 C.ar    1  UNL1       -0.0001
     29 C          62.6606   85.0365    8.8508 C.ar    1  UNL1        0.0121
     30 C          62.8362   85.0391    7.3611 C.3     1  UNL1        0.0342
     31 C          64.1282   83.1879   12.0413 C.2     1  UNL1        0.0729
     32 O          64.9526   82.1116   11.3996 O.co2   1  UNL1       -0.5446
     33 O          64.1253   83.3413   13.5334 O.co2   1  UNL1       -0.5446
@<TRIPOS>UNITY_ATOM_ATTR
32 1
charge -1
@<TRIPOS>BOND
     1    19    20    1
     2    20     1    1
     3     1     2    1
     4     2     3   ar
     5     3     4   ar
     6     4     5   ar
     7     5    21    1
     8    21    22    1
     9    22    23    1
    10    23    24    1
    11    24    25   ar
    12    25    26   ar
    13    26    27   ar
    14    27    31    1
    15    31    32   ar
    16    31    33   ar
    17    27    28   ar
    18    28    29   ar
    19    29    30    1
    20     5     6   ar
    21     6     7   ar
    22     7     8    1
    23     8     9    2
    24     8    10   am
    25    10    11    1
    26    10    12    1
    27    12    13   ar
    28    13    14   ar
    29    14    15   ar
    30    15    16    1
    31    15    17   ar
    32    17    18   ar
    33    18     1    1
    34     7     2   ar
    35    18    12   ar
    36    29    24   ar
@<TRIPOS>MOLECULE
*****
 33 36 0 0 0
SMALL
GASTEIGER

@<TRIPOS>ATOM
      1 N          62.6026   85.2276   11.1290 N.pl3   1  UNL1       -0.2567
      2 C          62.6921   86.7152   11.2990 C.ar    1  UNL1        0.1408
      3 N          62.1983   87.4368   10.0802 N.ar    1  UNL1       -0.2290
      4 C          62.2025   88.9363   10.0433 C.ar    1  UNL1        0.0961
      5 C          62.7005   89.7142   11.2251 C.ar    1  UNL1        0.0010
      6 C          63.1943   88.9927   12.4439 C.ar    1  UNL1        0.0047
      7 C          63.1901   87.4932   12.4809 C.ar    1  UNL1        0.0855
      8 C          63.7215   86.9756   13.7846 C.2     1  UNL1        0.2556
      9 O          64.1442   88.0194   14.7755 O.2     1  UNL1       -0.2695
     10 N          63.8863   85.5523   14.2285 N.am    1  UNL1       -0.2508
     11 C          64.4519   85.3610   15.6045 C.3     1  UNL1        0.1204
     12 C          63.5602   84.2950   13.4782 C.ar    1  UNL1        0.0864
     13 C          63.8793   83.0744   14.2896 C.ar    1  UNL1        0.0217
     14 C          63.6271   81.7091   13.7215 C.ar    1  UNL1        0.0510
     15 C          63.0558   81.5646   12.3421 C.ar    1  UNL1        0.2235
     16 F          62.8035   80.1995   11.7740 F       1  UNL1       -0.1832
     17 N          62.7367   82.7853   11.5308 N.ar    1  UNL1       -0.2014
     18 C          62.9889   84.1504   12.0988 C.ar    1  UNL1        0.1526
     19 C          62.8927   84.8478    8.5753 C.3     1  UNL1        0.0237
     20 C          62.0541   84.7545    9.8155 C.3     1  UNL1        0.0984
     21 C          62.7047   91.2138   11.1881 C.3     1  UNL1        0.0752
     22 C          63.5205   91.9363   10.1574 C.3     1  UNL1        0.2101
     23 O          64.9963   92.1142   10.3585 O.3     1  UNL1       -0.4754
     24 C          65.5374   92.4008   11.7278 C.ar    1  UNL1        0.1345
     25 C          65.5641   91.3181   12.7656 C.ar    1  UNL1        0.0366
     26 C          66.1052   91.6047   14.1348 C.ar    1  UNL1        0.0042
     27 C          66.6197   92.9742   14.4664 C.ar    1  UNL1        0.0139
     28 C          66.5930   94.0570   13.4287 C.ar    1  UNL1       -0.0001
     29 C          66.0518   93.7703   12.0594 C.ar    1  UNL1        0.0121
     30 C          66.0251   94.8530   11.0216 C.3     1  UNL1        0.0342
     31 C          67.1608   93.2609   15.8357 C.2     1  UNL1        0.0729
     32 O          68.4814   93.9552   15.9900 O.co2   1  UNL1       -0.5446
     33 O          66.3813   92.8532   17.0507 O.co2   1  UNL1       -0.5446
@<TRIPOS>UNITY_ATOM_ATTR
32 1
charge -1
@<TRIPOS>BOND
     1    19    20    1
     2    20     1    1
     3     1     2    1
     4     2     3   ar
     5     3     4   ar
     6     4     5   ar
     7     5    21    1
     8    21    22    1
     9    22    23    1
    10    23    24    1
    11    24    25   ar
    12    25    26   ar
    13    26    27   ar
    14    27    31    1
    15    31    32   ar
    16    31    33   ar
    17    27    28   ar
    18    28    29   ar
    19    29    30    1
    20     5     6   ar
    21     6     7   ar
    22     7     8    1
    23     8     9    2
    24     8    10   am
    25    10    11    1
    26    10    12    1
    27    12    13   ar
    28    13    14   ar
    29    14    15   ar
    30    15    16    1
    31    15    17   ar
    32    17    18   ar
    33    18     1    1
    34     7     2   ar
    35    18    12   ar
    36    29    24   ar
@<TRIPOS>MOLECULE
*****
 33 36 0 0 0
SMALL
GASTEIGER

@<TRIPOS>ATOM
      1 N          62.7456   85.0025   11.0245 N.pl3   1  UNL1       -0.2567
      2 C          62.9151   86.3587   11.6426 C.ar    1  UNL1        0.1408
      3 N          62.4985   87.4472   10.6984 N.ar    1  UNL1       -0.2290
      4 C          62.5895   88.8832   11.1223 C.ar    1  UNL1        0.0961
      5 C          63.0971   89.2306   12.4904 C.ar    1  UNL1        0.0010
      6 C          63.5138   88.1421   13.4345 C.ar    1  UNL1        0.0047
      7 C          63.4228   86.7061   13.0106 C.ar    1  UNL1        0.0855
      8 C          63.8863   85.7831   14.0984 C.2     1  UNL1        0.2556
      9 O          64.3394   86.4462   15.3653 O.2     1  UNL1       -0.2695
     10 N          63.9567   84.2848   14.0869 N.am    1  UNL1       -0.2508
     11 C          64.4708   83.6477   15.3438 C.3     1  UNL1        0.1204
     12 C          63.5808   83.3394   12.9846 C.ar    1  UNL1        0.0864
     13 C          63.8063   81.9119   13.3864 C.ar    1  UNL1        0.0217
     14 C          63.4927   80.8038   12.4253 C.ar    1  UNL1        0.0510
     15 C          62.9538   81.1232   11.0624 C.ar    1  UNL1        0.2235
     16 F          62.6402   80.0151   10.1012 F       1  UNL1       -0.1832
     17 N          62.7284   82.5507   10.6606 N.ar    1  UNL1       -0.2014
     18 C          63.0419   83.6588   11.6217 C.ar    1  UNL1        0.1526
     19 C          63.1340   85.2084    8.4638 C.3     1  UNL1        0.0237
     20 C          62.2088   84.9881    9.6239 C.3     1  UNL1        0.0984
     21 C          63.1881   90.6666   12.9142 C.3     1  UNL1        0.0752
     22 C          63.9244   91.0332   14.1686 C.3     1  UNL1        0.2101
     23 O          64.9845   92.0939   14.1333 O.3     1  UNL1       -0.4754
     24 C          65.7285   92.3686   12.8602 C.ar    1  UNL1        0.1345
     25 C          64.9820   92.8047   11.6344 C.ar    1  UNL1        0.0366
     26 C          65.7260   93.0794   10.3612 C.ar    1  UNL1        0.0042
     27 C          67.2166   92.9181   10.3139 C.ar    1  UNL1        0.0139
     28 C          67.9631   92.4820   11.5397 C.ar    1  UNL1       -0.0001
     29 C          67.2190   92.2073   12.8128 C.ar    1  UNL1        0.0121
     30 C          67.9655   91.7712   14.0386 C.3     1  UNL1        0.0342
     31 C          67.9606   93.1928    9.0407 C.2     1  UNL1        0.0729
     32 O          68.7323   92.0945    8.3712 O.co2   1  UNL1       -0.5446
     33 O          67.9329   94.5657    8.4371 O.co2   1  UNL1       -0.5446
@<TRIPOS>UNITY_ATOM_ATTR
32 1
charge -1
@<TRIPOS>BOND
     1    19    20    1
     2    20     1    1
     3     1     2    1
     4     2     3   ar
     5     3     4   ar
     6     4     5   ar
     7     5    21    1
     8    21    22    1
     9    22    23    1
    10    23    24    1
    11    24    25   ar
    12    25    26   ar
    13    26    27   ar
    14    27    31    1
    15    31    32   ar
    16    31    33   ar
    17    27    28   ar
    18    28    29   ar
    19    29    30    1
    20     5     6   ar
    21     6     7   ar
    22     7     8    1
    23     8     9    2
    24     8    10   am
    25    10    11    1
    26    10    12    1
    27    12    13   ar
    28    13    14   ar
    29    14    15   ar
    30    15    16    1
    31    15    17   ar
    32    17    18   ar
    33    18     1    1
    34     7     2   ar
    35    18    12   ar
    36    29    24   ar
@<TRIPOS>MOLECULE
*****
 33 36 0 0 0
SMALL
GASTEIGER

@<TRIPOS>ATOM
      1 N          63.9068   85.6513   14.1215 N.pl3   1  UNL1       -0.2567
      2 C          63.8858   87.1305   13.8736 C.ar    1  UNL1        0.1408
      3 N          64.4736   87.8879   15.0272 N.ar    1  UNL1       -0.2290
      4 C          64.5481   89.3853   14.9813 C.ar    1  UNL1        0.0961
      5 C          64.0348   90.1253   13.7817 C.ar    1  UNL1        0.0010
      6 C          63.4470   89.3680   12.6281 C.ar    1  UNL1        0.0047
      7 C          63.3725   87.8706   12.6741 C.ar    1  UNL1        0.0855
      8 C          62.7535   87.3141   11.4262 C.2     1  UNL1        0.2556
      9 O          62.3381   88.3253   10.3991 O.2     1  UNL1       -0.2695
     10 N          62.4948   85.8802   11.0696 N.am    1  UNL1       -0.2508
     11 C          61.8551   85.6472    9.7331 C.3     1  UNL1        0.1204
     12 C          62.7914   84.6487   11.8729 C.ar    1  UNL1        0.0864
     13 C          62.3717   83.4058   11.1455 C.ar    1  UNL1        0.0217
     14 C          62.5804   82.0609   11.7764 C.ar    1  UNL1        0.0510
     15 C          63.2088   81.9590   13.1345 C.ar    1  UNL1        0.2235
     16 F          63.4175   80.6143   13.7654 F       1  UNL1       -0.1832
     17 N          63.6285   83.2019   13.8619 N.ar    1  UNL1       -0.2014
     18 C          63.4198   84.5467   13.2311 C.ar    1  UNL1        0.1526
     19 C          63.6584   85.2682   16.6792 C.3     1  UNL1        0.0237
     20 C          64.4924   85.2195   15.4332 C.3     1  UNL1        0.0984
     21 C          64.1093   91.6228   13.7358 C.3     1  UNL1        0.0752
     22 C          64.8998   92.3665   14.7712 C.3     1  UNL1        0.2101
     23 O          65.9415   93.3599   14.3491 O.3     1  UNL1       -0.4754
     24 C          66.4435   93.3653   12.9356 C.ar    1  UNL1        0.1345
     25 C          65.8901   94.3482   11.9469 C.ar    1  UNL1        0.0366
     26 C          66.3921   94.3536   10.5334 C.ar    1  UNL1        0.0042
     27 C          67.4477   93.3760   10.1087 C.ar    1  UNL1        0.0139
     28 C          68.0011   92.3932   11.0974 C.ar    1  UNL1       -0.0001
     29 C          67.4990   92.3878   12.5110 C.ar    1  UNL1        0.0121
     30 C          68.0524   91.4049   13.4997 C.3     1  UNL1        0.0342
     31 C          67.9497   93.3814    8.6952 C.2     1  UNL1        0.0729
     32 O          68.8185   92.2619    8.2037 O.co2   1  UNL1       -0.5446
     33 O          67.5829   94.5064    7.7733 O.co2   1  UNL1       -0.5446
@<TRIPOS>UNITY_ATOM_ATTR
32 1
charge -1
@<TRIPOS>BOND
     1    19    20    1
     2    20     1    1
     3     1     2    1
     4     2     3   ar
     5     3     4   ar
     6     4     5   ar
     7     5    21    1
     8    21    22    1
     9    22    23    1
    10    23    24    1
    11    24    25   ar
    12    25    26   ar
    13    26    27   ar
    14    27    31    1
    15    31    32   ar
    16    31    33   ar
    17    27    28   ar
    18    28    29   ar
    19    29    30    1
    20     5     6   ar
    21     6     7   ar
    22     7     8    1
    23     8     9    2
    24     8    10   am
    25    10    11    1
    26    10    12    1
    27    12    13   ar
    28    13    14   ar
    29    14    15   ar
    30    15    16    1
    31    15    17   ar
    32    17    18   ar
    33    18     1    1
    34     7     2   ar
    35    18    12   ar
    36    29    24   ar
@<TRIPOS>MOLECULE
*****
 33 36 0 0 0
SMALL
GASTEIGER

@<TRIPOS>ATOM
      1 N          62.1514   86.4379   11.2057 N.pl3   1  UNL1       -0.2567
      2 C          61.4854   87.2568   10.1399 C.ar    1  UNL1        0.1408
      3 N          60.7669   86.3883    9.1503 N.ar    1  UNL1       -0.2290
      4 C          60.0323   87.0111    8.0003 C.ar    1  UNL1        0.0961
      5 C          60.0163   88.5024    7.8400 C.ar    1  UNL1        0.0010
      6 C          60.7348   89.3709    8.8296 C.ar    1  UNL1        0.0047
      7 C          61.4693   88.7481    9.9795 C.ar    1  UNL1        0.0855
      8 C          62.1152   89.7888   10.8454 C.2     1  UNL1        0.2556
      9 O          61.9129   91.2112   10.4142 O.2     1  UNL1       -0.2695
     10 N          62.9367   89.5954   12.0855 N.am    1  UNL1       -0.2508
     11 C          63.4472   90.8497   12.7303 C.3     1  UNL1        0.1204
     12 C          63.3152   88.3132   12.7659 C.ar    1  UNL1        0.0864
     13 C          64.1506   88.5662   13.9858 C.ar    1  UNL1        0.0217
     14 C          64.6365   87.4138   14.8142 C.ar    1  UNL1        0.0510
     15 C          64.2870   86.0087   14.4227 C.ar    1  UNL1        0.2235
     16 F          64.7729   84.8564   15.2510 F       1  UNL1       -0.1832
     17 N          63.4516   85.7558   13.2028 N.ar    1  UNL1       -0.2014
     18 C          62.9657   86.9080   12.3744 C.ar    1  UNL1        0.1526
     19 C          63.0579   84.1214   10.4558 C.3     1  UNL1        0.0237
     20 C          61.9804   84.9524   11.0871 C.3     1  UNL1        0.0984
     21 C          59.2816   89.1252    6.6899 C.3     1  UNL1        0.0752
     22 C          59.7382   90.4407    6.1324 C.3     1  UNL1        0.2101
     23 O          60.9147   90.4938    5.2032 O.3     1  UNL1       -0.4754
     24 C          60.9723   91.5348    4.1249 C.ar    1  UNL1        0.1345
     25 C          59.8148   92.4665    3.9192 C.ar    1  UNL1        0.0366
     26 C          59.8724   93.5075    2.8408 C.ar    1  UNL1        0.0042
     27 C          61.0876   93.6169    1.9681 C.ar    1  UNL1        0.0139
     28 C          62.2450   92.6853    2.1738 C.ar    1  UNL1       -0.0001
     29 C          62.1874   91.6442    3.2522 C.ar    1  UNL1        0.0121
     30 C          63.3448   90.7126    3.4579 C.3     1  UNL1        0.0342
     31 C          61.1452   94.6580    0.8897 C.2     1  UNL1        0.0729
     32 O          59.8938   95.3672    0.4644 O.co2   1  UNL1       -0.5446
     33 O          62.4542   94.9898    0.2368 O.co2   1  UNL1       -0.5446
@<TRIPOS>UNITY_ATOM_ATTR
32 1
charge -1
@<TRIPOS>BOND
     1    19    20    1
     2    20     1    1
     3     1     2    1
     4     2     3   ar
     5     3     4   ar
     6     4     5   ar
     7     5    21    1
     8    21    22    1
     9    22    23    1
    10    23    24    1
    11    24    25   ar
    12    25    26   ar
    13    26    27   ar
    14    27    31    1
    15    31    32   ar
    16    31    33   ar
    17    27    28   ar
    18    28    29   ar
    19    29    30    1
    20     5     6   ar
    21     6     7   ar
    22     7     8    1
    23     8     9    2
    24     8    10   am
    25    10    11    1
    26    10    12    1
    27    12    13   ar
    28    13    14   ar
    29    14    15   ar
    30    15    16    1
    31    15    17   ar
    32    17    18   ar
    33    18     1    1
    34     7     2   ar
    35    18    12   ar
    36    29    24   ar
@<TRIPOS>MOLECULE
*****
 33 36 0 0 0
SMALL
GASTEIGER

@<TRIPOS>ATOM
      1 N          62.3152   86.4864   10.7425 N.pl3   1  UNL1       -0.2567
      2 C          62.7648   87.4242   11.8235 C.ar    1  UNL1        0.1408
      3 N          63.7053   86.7499   12.7778 N.ar    1  UNL1       -0.2290
      4 C          64.2741   87.5143   13.9362 C.ar    1  UNL1        0.0961
      5 C          63.9023   88.9531   14.1404 C.ar    1  UNL1        0.0010
      6 C          62.9617   89.6274   13.1862 C.ar    1  UNL1        0.0047
      7 C          62.3930   88.8629   12.0278 C.ar    1  UNL1        0.0855
      8 C          61.4798   89.7192   11.2014 C.2     1  UNL1        0.2556
      9 O          61.3112   91.1335   11.6719 O.2     1  UNL1       -0.2695
     10 N          60.7129   89.3484    9.9667 N.am    1  UNL1       -0.2508
     11 C          59.8789   90.4408    9.3659 C.3     1  UNL1        0.1204
     12 C          60.6698   88.0295    9.2535 C.ar    1  UNL1        0.0864
     13 C          59.7730   88.0851    8.0524 C.ar    1  UNL1        0.0217
     14 C          59.5893   86.8670    7.1965 C.ar    1  UNL1        0.0510
     15 C          60.3024   85.5933    7.5418 C.ar    1  UNL1        0.2235
     16 F          60.1187   84.3752    6.6860 F       1  UNL1       -0.1832
     17 N          61.1992   85.5377    8.7429 N.ar    1  UNL1       -0.2014
     18 C          61.3829   86.7557    9.5987 C.ar    1  UNL1        0.1526
     19 C          62.4011   84.1540   11.8838 C.3     1  UNL1        0.0237
     20 C          62.8716   85.0953   10.8149 C.3     1  UNL1        0.0984
     21 C          64.4711   89.7176   15.2989 C.3     1  UNL1        0.0752
     22 C          64.0843   91.1507   15.5143 C.3     1  UNL1        0.2101
     23 O          65.0752   92.2439   15.2434 O.3     1  UNL1       -0.4754
     24 C          65.8346   92.2643   13.9500 C.ar    1  UNL1        0.1345
     25 C          65.1070   92.4824   12.6565 C.ar    1  UNL1        0.0366
     26 C          65.8664   92.5028   11.3631 C.ar    1  UNL1        0.0042
     27 C          67.3533   92.3051   11.3632 C.ar    1  UNL1        0.0139
     28 C          68.0809   92.0869   12.6566 C.ar    1  UNL1       -0.0001
     29 C          67.3214   92.0665   13.9501 C.ar    1  UNL1        0.0121
     30 C          68.0490   91.8483   15.2436 C.3     1  UNL1        0.0342
     31 C          68.1127   92.3255   10.0698 C.2     1  UNL1        0.0729
     32 O          69.0333   93.4680    9.7585 O.co2   1  UNL1       -0.5446
     33 O          67.9514   91.2033    9.0876 O.co2   1  UNL1       -0.5446
@<TRIPOS>UNITY_ATOM_ATTR
32 1
charge -1
@<TRIPOS>BOND
     1    19    20    1
     2    20     1    1
     3     1     2    1
     4     2     3   ar
     5     3     4   ar
     6     4     5   ar
     7     5    21    1
     8    21    22    1
     9    22    23    1
    10    23    24    1
    11    24    25   ar
    12    25    26   ar
    13    26    27   ar
    14    27    31    1
    15    31    32   ar
    16    31    33   ar
    17    27    28   ar
    18    28    29   ar
    19    29    30    1
    20     5     6   ar
    21     6     7   ar
    22     7     8    1
    23     8     9    2
    24     8    10   am
    25    10    11    1
    26    10    12    1
    27    12    13   ar
    28    13    14   ar
    29    14    15   ar
    30    15    16    1
    31    15    17   ar
    32    17    18   ar
    33    18     1    1
    34     7     2   ar
    35    18    12   ar
    36    29    24   ar
@<TRIPOS>MOLECULE
*****
 33 36 0 0 0
SMALL
GASTEIGER

@<TRIPOS>ATOM
      1 N          63.7460   85.5181   13.7548 N.pl3   1  UNL1       -0.2567
      2 C          63.5555   86.9060   13.2185 C.ar    1  UNL1        0.1408
      3 N          63.9719   87.9424   14.2196 N.ar    1  UNL1       -0.2290
      4 C          63.8613   89.3994   13.8809 C.ar    1  UNL1        0.0961
      5 C          63.3342   89.8200   12.5410 C.ar    1  UNL1        0.0010
      6 C          62.9178   88.7836   11.5399 C.ar    1  UNL1        0.0047
      7 C          63.0284   87.3266   11.8786 C.ar    1  UNL1        0.0855
      8 C          62.5617   86.4632   10.7442 C.2     1  UNL1        0.2556
      9 O          62.0872   87.1936    9.5230 O.2     1  UNL1       -0.2695
     10 N          62.5068   84.9661   10.6694 N.am    1  UNL1       -0.2508
     11 C          61.9847   84.3974    9.3834 C.3     1  UNL1        0.1204
     12 C          62.9051   83.9625   11.7107 C.ar    1  UNL1        0.0864
     13 C          62.6897   82.5584   11.2292 C.ar    1  UNL1        0.0217
     14 C          63.0257   81.3998   12.1208 C.ar    1  UNL1        0.0510
     15 C          63.5772   81.6455   13.4939 C.ar    1  UNL1        0.2235
     16 F          63.9132   80.4871   14.3856 F       1  UNL1       -0.1832
     17 N          63.7926   83.0497   13.9754 N.ar    1  UNL1       -0.2014
     18 C          63.4566   84.2082   13.0839 C.ar    1  UNL1        0.1526
     19 C          63.3873   85.5828   16.3272 C.3     1  UNL1        0.0237
     20 C          64.2992   85.4284   15.1462 C.3     1  UNL1        0.0984
     21 C          63.2236   91.2772   12.2023 C.3     1  UNL1        0.0752
     22 C          63.7557   91.7858   10.8954 C.3     1  UNL1        0.2101
     23 O          65.1242   92.3965   10.8294 O.3     1  UNL1       -0.4754
     24 C          65.9026   92.6307   12.0901 C.ar    1  UNL1        0.1345
     25 C          66.3233   91.4676   12.9387 C.ar    1  UNL1        0.0366
     26 C          67.1017   91.7017   14.1994 C.ar    1  UNL1        0.0042
     27 C          67.4594   93.0990   14.6114 C.ar    1  UNL1        0.0139
     28 C          67.0387   94.2621   13.7628 C.ar    1  UNL1       -0.0001
     29 C          66.2603   94.0279   12.5020 C.ar    1  UNL1        0.0121
     30 C          65.8396   95.1910   11.6534 C.3     1  UNL1        0.0342
     31 C          68.2377   93.3331   15.8721 C.2     1  UNL1        0.0729
     32 O          68.5396   92.1866   16.7909 O.co2   1  UNL1       -0.5446
     33 O          68.7142   94.7138   16.2138 O.co2   1  UNL1       -0.5446
@<TRIPOS>UNITY_ATOM_ATTR
32 1
charge -1
@<TRIPOS>BOND
     1    19    20    1
     2    20     1    1
     3     1     2    1
     4     2     3   ar
     5     3     4   ar
     6     4     5   ar
     7     5    21    1
     8    21    22    1
     9    22    23    1
    10    23    24    1
    11    24    25   ar
    12    25    26   ar
    13    26    27   ar
    14    27    31    1
    15    31    32   ar
    16    31    33   ar
    17    27    28   ar
    18    28    29   ar
    19    29    30    1
    20     5     6   ar
    21     6     7   ar
    22     7     8    1
    23     8     9    2
    24     8    10   am
    25    10    11    1
    26    10    12    1
    27    12    13   ar
    28    13    14   ar
    29    14    15   ar
    30    15    16    1
    31    15    17   ar
    32    17    18   ar
    33    18     1    1
    34     7     2   ar
    35    18    12   ar
    36    29    24   ar
