@<TRIPOS>MOLECULE
*****
 26 29 0 0 0
SMALL
GASTEIGER

@<TRIPOS>ATOM
      1 C          63.8577   89.6281   13.5986 C.ar    1  UNL1        0.1385
      2 C          63.1931   89.2928   12.2963 C.ar    1  UNL1        0.0384
      3 C          62.9479   87.8599   11.9266 C.ar    1  UNL1        0.0203
      4 C          63.3673   86.7624   12.8590 C.ar    1  UNL1        0.0602
      5 C          64.0319   87.0977   14.1613 C.ar    1  UNL1        0.0204
      6 C          64.2771   88.5306   14.5310 C.ar    1  UNL1        0.0384
      7 C          64.3329   85.8119   14.8727 C.ar    1  UNL1        0.0233
      8 C          63.8543   84.6819   14.0101 C.ar    1  UNL1        0.1140
      9 N          63.2575   85.2693   12.7657 N.ar    1  UNL1       -0.3236
     10 C          62.6436   84.5574   11.5967 C.3     1  UNL1        0.1079
     11 C          62.4749   83.0822   11.3837 C.3     1  UNL1        0.0457
     12 C          62.8783   81.9547   12.2868 C.3     1  UNL1        0.0917
     13 N          63.5502   82.0237   13.6262 N.am    1  UNL1       -0.2996
     14 C          63.9845   83.2375   14.3931 C.2     1  UNL1        0.2618
     15 O          64.6351   82.9717   15.7182 O.2     1  UNL1       -0.2686
     16 H          63.7298   81.1580   14.0591 H       1  UNL1        0.1498
     17 O          64.1030   91.0610   13.9683 O.3     1  UNL1       -0.4791
     18 N          66.2830   93.7784   11.1199 N.3     1  UNL1       -0.2737
     19 C          65.2412   92.8308   10.6034 C.3     1  UNL1        0.0758
     20 C          64.5145   91.9250   11.5529 C.3     1  UNL1        0.0609
     21 C          64.8297   91.9668   13.0188 C.3     1  UNL1        0.1687
     22 C          65.8714   92.9145   13.5353 C.3     1  UNL1        0.0609
     23 C          66.5981   93.8203   12.5858 C.3     1  UNL1        0.0758
     24 C          67.9176   94.1039    9.1269 C.3     1  UNL1        0.0173
     25 C          67.0095   94.6841   10.1703 C.3     1  UNL1        0.0576
     26 C          66.8280   96.1701   10.2643 C.3     1  UNL1        0.0173
@<TRIPOS>BOND
     1    24    25    1
     2    25    26    1
     3    25    18    1
     4    18    19    1
     5    19    20    1
     6    20    21    1
     7    21    17    1
     8    17     1    1
     9     1     2   ar
    10     2     3   ar
    11     3     4   ar
    12     4     5   ar
    13     5     6   ar
    14     5     7   ar
    15     7     8   ar
    16     8     9   ar
    17     9    10    1
    18    10    11    1
    19    11    12    1
    20    12    13    1
    21    13    14   am
    22    14    15    2
    23    21    22    1
    24    22    23    1
    25    23    18    1
    26     6     1   ar
    27    14     8    1
    28     9     4   ar
    29    13    16    1
@<TRIPOS>MOLECULE
*****
 26 29 0 0 0
SMALL
GASTEIGER

@<TRIPOS>ATOM
      1 C          62.2796   88.0298   10.7800 C.ar    1  UNL1        0.1385
      2 C          61.9272   87.0128    9.7353 C.ar    1  UNL1        0.0384
      3 C          62.0794   85.5501   10.0311 C.ar    1  UNL1        0.0203
      4 C          62.5839   85.1045   11.3716 C.ar    1  UNL1        0.0602
      5 C          62.9363   86.1216   12.4163 C.ar    1  UNL1        0.0204
      6 C          62.7841   87.5842   12.1205 C.ar    1  UNL1        0.0384
      7 C          63.4057   85.3881   13.6376 C.ar    1  UNL1        0.0233
      8 C          63.3435   83.9177   13.3476 C.ar    1  UNL1        0.1140
      9 N          62.8356   83.7425   11.9473 N.ar    1  UNL1       -0.3236
     10 C          62.5968   82.4689   11.1915 C.3     1  UNL1        0.1079
     11 C          62.8070   81.0561   11.6496 C.3     1  UNL1        0.0457
     12 C          63.3078   80.5680   12.9765 C.3     1  UNL1        0.0917
     13 N          63.7222   81.3719   14.1731 N.am    1  UNL1       -0.2996
     14 C          63.7381   82.8627   14.3383 C.2     1  UNL1        0.2618
     15 O          64.2111   83.3650   15.6702 O.2     1  UNL1       -0.2686
     16 H          64.0236   80.8525   14.9532 H       1  UNL1        0.1498
     17 O          62.1274   89.4925   10.4842 O.3     1  UNL1       -0.4791
     18 N          65.0967   92.4429   12.1362 N.3     1  UNL1       -0.2737
     19 C          64.7312   92.4811   10.6819 C.3     1  UNL1        0.0758
     20 C          63.7414   91.4977   10.1313 C.3     1  UNL1        0.0609
     21 C          63.1172   90.4760   11.0349 C.3     1  UNL1        0.1687
     22 C          63.4828   90.4378   12.4892 C.3     1  UNL1        0.0609
     23 C          64.4725   91.4212   13.0398 C.3     1  UNL1        0.0758
     24 C          66.3507   94.7114   11.9596 C.3     1  UNL1        0.0173
     25 C          66.0865   93.4263   12.6867 C.3     1  UNL1        0.0576
     26 C          66.8121   93.1246   13.9644 C.3     1  UNL1        0.0173
@<TRIPOS>BOND
     1    24    25    1
     2    25    26    1
     3    25    18    1
     4    18    19    1
     5    19    20    1
     6    20    21    1
     7    21    17    1
     8    17     1    1
     9     1     2   ar
    10     2     3   ar
    11     3     4   ar
    12     4     5   ar
    13     5     6   ar
    14     5     7   ar
    15     7     8   ar
    16     8     9   ar
    17     9    10    1
    18    10    11    1
    19    11    12    1
    20    12    13    1
    21    13    14   am
    22    14    15    2
    23    21    22    1
    24    22    23    1
    25    23    18    1
    26     6     1   ar
    27    14     8    1
    28     9     4   ar
    29    13    16    1
@<TRIPOS>MOLECULE
*****
 26 29 0 0 0
SMALL
GASTEIGER

@<TRIPOS>ATOM
      1 C          63.8250   87.7571   14.6028 C.ar    1  UNL1        0.1385
      2 C          63.3112   87.8982   13.2007 C.ar    1  UNL1        0.0384
      3 C          63.6262   89.1315   12.4071 C.ar    1  UNL1        0.0203
      4 C          64.4550   90.2236   13.0156 C.ar    1  UNL1        0.0602
      5 C          64.9688   90.0825   14.4178 C.ar    1  UNL1        0.0204
      6 C          64.6538   88.8492   15.2114 C.ar    1  UNL1        0.0384
      7 C          65.7556   91.3157   14.7496 C.ar    1  UNL1        0.0233
      8 C          65.7281   92.2190   13.5523 C.ar    1  UNL1        0.1140
      9 N          64.9244   91.5441   12.4808 N.ar    1  UNL1       -0.3236
     10 C          64.6047   92.0373   11.1007 C.3     1  UNL1        0.1079
     11 C          65.0101   93.3274   10.4514 C.3     1  UNL1        0.0457
     12 C          65.8350   94.4427   11.0218 C.3     1  UNL1        0.0917
     13 N          66.4585   94.5436   12.3824 N.am    1  UNL1       -0.2996
     14 C          66.4109   93.5539   13.5086 C.2     1  UNL1        0.2618
     15 O          67.1429   93.9518   14.7559 O.2     1  UNL1       -0.2686
     16 H          66.9660   95.3683   12.5596 H       1  UNL1        0.1498
     17 O          63.5100   86.5238   15.3965 O.3     1  UNL1       -0.4791
     18 N          62.9816   82.5753   13.3035 N.3     1  UNL1       -0.2737
     19 C          64.0054   83.5545   12.8104 C.3     1  UNL1        0.0758
     20 C          64.1815   84.8706   13.5080 C.3     1  UNL1        0.0609
     21 C          63.3339   85.2076   14.6988 C.3     1  UNL1        0.1687
     22 C          62.3101   84.2284   15.1919 C.3     1  UNL1        0.0609
     23 C          62.1340   82.9123   14.4942 C.3     1  UNL1        0.0758
     24 C          63.1120   81.1392   11.1423 C.3     1  UNL1        0.0173
     25 C          62.8056   81.2592   12.6058 C.3     1  UNL1        0.0576
     26 C          62.3231   80.0631   13.3716 C.3     1  UNL1        0.0173
@<TRIPOS>BOND
     1    24    25    1
     2    25    26    1
     3    25    18    1
     4    18    19    1
     5    19    20    1
     6    20    21    1
     7    21    17    1
     8    17     1    1
     9     1     2   ar
    10     2     3   ar
    11     3     4   ar
    12     4     5   ar
    13     5     6   ar
    14     5     7   ar
    15     7     8   ar
    16     8     9   ar
    17     9    10    1
    18    10    11    1
    19    11    12    1
    20    12    13    1
    21    13    14   am
    22    14    15    2
    23    21    22    1
    24    22    23    1
    25    23    18    1
    26     6     1   ar
    27    14     8    1
    28     9     4   ar
    29    13    16    1
@<TRIPOS>MOLECULE
*****
 26 29 0 0 0
SMALL
GASTEIGER

@<TRIPOS>ATOM
      1 C          63.8108   89.6860   13.7586 C.ar    1  UNL1        0.1385
      2 C          64.2475   89.0527   15.0464 C.ar    1  UNL1        0.0384
      3 C          64.2210   87.5603   15.1951 C.ar    1  UNL1        0.0203
      4 C          63.7580   86.7012   14.0561 C.ar    1  UNL1        0.0602
      5 C          63.3213   87.3345   12.7683 C.ar    1  UNL1        0.0204
      6 C          63.3478   88.8268   12.6196 C.ar    1  UNL1        0.0384
      7 C          62.9176   86.2390   11.8266 C.ar    1  UNL1        0.0233
      8 C          63.1047   84.9286   12.5323 C.ar    1  UNL1        0.1140
      9 N          63.6241   85.2144   13.9101 N.ar    1  UNL1       -0.3236
     10 C          63.9698   84.2427   14.9995 C.3     1  UNL1        0.1079
     11 C          63.8815   82.7454   14.9798 C.3     1  UNL1        0.0457
     12 C          63.4258   81.8501   13.8661 C.3     1  UNL1        0.0917
     13 N          62.9457   82.2307   12.4969 N.am    1  UNL1       -0.2996
     14 C          62.8028   83.6008   11.9033 C.2     1  UNL1        0.2618
     15 O          62.2902   83.6495   10.4945 O.2     1  UNL1       -0.2686
     16 H          62.6906   81.4823   11.9103 H       1  UNL1        0.1498
     17 O          63.8373   91.1783   13.6099 O.3     1  UNL1       -0.4791
     18 N          66.6570   93.0974   10.6745 N.3     1  UNL1       -0.2737
     19 C          65.2748   92.7074   10.2416 C.3     1  UNL1        0.0758
     20 C          64.3349   92.0678   11.2200 C.3     1  UNL1        0.0609
     21 C          64.7772   91.8180   12.6314 C.3     1  UNL1        0.1687
     22 C          66.1595   92.2079   13.0643 C.3     1  UNL1        0.0609
     23 C          67.0994   92.8476   12.0859 C.3     1  UNL1        0.0758
     24 C          68.6848   92.9238    9.0596 C.3     1  UNL1        0.0173
     25 C          67.5968   93.7370    9.6960 C.3     1  UNL1        0.0576
     26 C          67.4486   95.1899    9.3538 C.3     1  UNL1        0.0173
@<TRIPOS>BOND
     1    24    25    1
     2    25    26    1
     3    25    18    1
     4    18    19    1
     5    19    20    1
     6    20    21    1
     7    21    17    1
     8    17     1    1
     9     1     2   ar
    10     2     3   ar
    11     3     4   ar
    12     4     5   ar
    13     5     6   ar
    14     5     7   ar
    15     7     8   ar
    16     8     9   ar
    17     9    10    1
    18    10    11    1
    19    11    12    1
    20    12    13    1
    21    13    14   am
    22    14    15    2
    23    21    22    1
    24    22    23    1
    25    23    18    1
    26     6     1   ar
    27    14     8    1
    28     9     4   ar
    29    13    16    1
@<TRIPOS>MOLECULE
*****
 26 29 0 0 0
SMALL
GASTEIGER

@<TRIPOS>ATOM
      1 C          62.0751   88.7755   11.1680 C.ar    1  UNL1        0.1385
      2 C          62.1524   89.6903    9.9817 C.ar    1  UNL1        0.0384
      3 C          63.0063   90.9222   10.0389 C.ar    1  UNL1        0.0203
      4 C          63.7829   91.2394   11.2824 C.ar    1  UNL1        0.0602
      5 C          63.7057   90.3246   12.4686 C.ar    1  UNL1        0.0204
      6 C          62.8518   89.0927   12.4114 C.ar    1  UNL1        0.0384
      7 C          64.5771   90.8924   13.5495 C.ar    1  UNL1        0.0233
      8 C          65.1929   92.1582   13.0311 C.ar    1  UNL1        0.1140
      9 N          64.7021   92.3726   11.6301 N.ar    1  UNL1       -0.3236
     10 C          65.0270   93.4923   10.6863 C.3     1  UNL1        0.1079
     11 C          65.9231   94.6743   10.9107 C.3     1  UNL1        0.0457
     12 C          66.7153   95.0283   12.1341 C.3     1  UNL1        0.0917
     13 N          66.8075   94.2879   13.4354 N.am    1  UNL1       -0.2996
     14 C          66.1299   93.0106   13.8346 C.2     1  UNL1        0.2618
     15 O          66.4289   92.5209   15.2205 O.2     1  UNL1       -0.2686
     16 H          67.3896   94.6940   14.1176 H       1  UNL1        0.1498
     17 O          61.2212   87.5436   11.1107 O.3     1  UNL1       -0.4791
     18 N          63.1254   83.4732   11.3473 N.3     1  UNL1       -0.2737
     19 C          62.6418   84.1487   12.5962 C.3     1  UNL1        0.0758
     20 C          62.0071   85.5055   12.5174 C.3     1  UNL1        0.0609
     21 C          61.8560   86.1868   11.1896 C.3     1  UNL1        0.1687
     22 C          62.3396   85.5112    9.9407 C.3     1  UNL1        0.0609
     23 C          62.9743   84.1544   10.0195 C.3     1  UNL1        0.0758
     24 C          64.6574   81.7740   12.5784 C.3     1  UNL1        0.0173
     25 C          63.7601   82.1164   11.4262 C.3     1  UNL1        0.0576
     26 C          63.4974   81.1020   10.3529 C.3     1  UNL1        0.0173
@<TRIPOS>BOND
     1    24    25    1
     2    25    26    1
     3    25    18    1
     4    18    19    1
     5    19    20    1
     6    20    21    1
     7    21    17    1
     8    17     1    1
     9     1     2   ar
    10     2     3   ar
    11     3     4   ar
    12     4     5   ar
    13     5     6   ar
    14     5     7   ar
    15     7     8   ar
    16     8     9   ar
    17     9    10    1
    18    10    11    1
    19    11    12    1
    20    12    13    1
    21    13    14   am
    22    14    15    2
    23    21    22    1
    24    22    23    1
    25    23    18    1
    26     6     1   ar
    27    14     8    1
    28     9     4   ar
    29    13    16    1
@<TRIPOS>MOLECULE
*****
 26 29 0 0 0
SMALL
GASTEIGER

@<TRIPOS>ATOM
      1 C          59.2180   88.8668    7.5560 C.ar    1  UNL1        0.1385
      2 C          59.1704   87.3686    7.6129 C.ar    1  UNL1        0.0384
      3 C          59.9649   86.6319    8.6502 C.ar    1  UNL1        0.0203
      4 C          60.8070   87.3932    9.6305 C.ar    1  UNL1        0.0602
      5 C          60.8547   88.8914    9.5735 C.ar    1  UNL1        0.0204
      6 C          60.0602   89.6282    8.5363 C.ar    1  UNL1        0.0384
      7 C          61.7681   89.3679   10.6638 C.ar    1  UNL1        0.0233
      8 C          62.2849   88.1642   11.3945 C.ar    1  UNL1        0.1140
      9 N          61.6910   86.9439   10.7559 N.ar    1  UNL1       -0.3236
     10 C          61.8964   85.5034   11.1207 C.3     1  UNL1        0.1079
     11 C          62.7467   84.9277   12.2143 C.3     1  UNL1        0.0457
     12 C          63.6013   85.6502   13.2130 C.3     1  UNL1        0.0917
     13 N          63.8169   87.1268   13.3650 N.am    1  UNL1       -0.2996
     14 C          63.2311   88.2457   12.5557 C.2     1  UNL1        0.2618
     15 O          63.6463   89.6288   12.9611 O.2     1  UNL1       -0.2686
     16 H          64.4231   87.3974   14.0920 H       1  UNL1        0.1498
     17 O          58.4235   89.6035    6.5187 O.3     1  UNL1       -0.4791
     18 N          60.5115   92.2916    3.5750 N.3     1  UNL1       -0.2737
     19 C          59.0335   92.4242    3.7944 C.3     1  UNL1        0.0758
     20 C          58.3376   91.5283    4.7756 C.3     1  UNL1        0.0609
     21 C          59.1195   90.4996    5.5374 C.3     1  UNL1        0.1687
     22 C          60.5974   90.3669    5.3180 C.3     1  UNL1        0.0609
     23 C          61.2934   91.2629    4.3368 C.3     1  UNL1        0.0758
     24 C          60.5057   94.3995    2.0562 C.3     1  UNL1        0.0173
     25 C          61.2074   93.1876    2.5938 C.3     1  UNL1        0.0576
     26 C          62.6050   92.8717    2.1502 C.3     1  UNL1        0.0173
@<TRIPOS>BOND
     1    24    25    1
     2    25    26    1
     3    25    18    1
     4    18    19    1
     5    19    20    1
     6    20    21    1
     7    21    17    1
     8    17     1    1
     9     1     2   ar
    10     2     3   ar
    11     3     4   ar
    12     4     5   ar
    13     5     6   ar
    14     5     7   ar
    15     7     8   ar
    16     8     9   ar
    17     9    10    1
    18    10    11    1
    19    11    12    1
    20    12    13    1
    21    13    14   am
    22    14    15    2
    23    21    22    1
    24    22    23    1
    25    23    18    1
    26     6     1   ar
    27    14     8    1
    28     9     4   ar
    29    13    16    1
@<TRIPOS>MOLECULE
*****
 26 29 0 0 0
SMALL
GASTEIGER

@<TRIPOS>ATOM
      1 C          62.8849   88.4595   11.9614 C.ar    1  UNL1        0.1385
      2 C          62.3150   87.6918   10.8056 C.ar    1  UNL1        0.0384
      3 C          62.2851   86.1926   10.8427 C.ar    1  UNL1        0.0203
      4 C          62.8252   85.4610   12.0356 C.ar    1  UNL1        0.0602
      5 C          63.3952   86.2286   13.1914 C.ar    1  UNL1        0.0204
      6 C          63.4250   87.7279   13.1543 C.ar    1  UNL1        0.0384
      7 C          63.8515   85.2409   14.2239 C.ar    1  UNL1        0.0233
      8 C          63.5636   83.8628   13.7063 C.ar    1  UNL1        0.1140
      9 N          62.9293   83.9989   12.3539 N.ar    1  UNL1       -0.3236
     10 C          62.4583   82.9162   11.4286 C.3     1  UNL1        0.1079
     11 C          62.5052   81.4301   11.6274 C.3     1  UNL1        0.0457
     12 C          63.0347   80.6598   12.8004 C.3     1  UNL1        0.0917
     13 N          63.6481   81.1851   14.0645 N.am    1  UNL1       -0.2996
     14 C          63.8835   82.6106   14.4676 C.2     1  UNL1        0.2618
     15 O          64.5233   82.8103   15.8095 O.2     1  UNL1       -0.2686
     16 H          63.9340   80.5042   14.7156 H       1  UNL1        0.1498
     17 O          62.9147   89.9587   11.9243 O.3     1  UNL1       -0.4791
     18 N          66.0391   92.2054   14.2569 N.3     1  UNL1       -0.2737
     19 C          65.1359   91.2332   14.9562 C.3     1  UNL1        0.0758
     20 C          64.0945   90.4843   14.1787 C.3     1  UNL1        0.0609
     21 C          63.9562   90.7076   12.7018 C.3     1  UNL1        0.1687
     22 C          64.8594   91.6799   12.0026 C.3     1  UNL1        0.0609
     23 C          65.9008   92.4288   12.7801 C.3     1  UNL1        0.0758
     24 C          67.8058   92.2788   16.1604 C.3     1  UNL1        0.0173
     25 C          67.0805   92.9542   15.0345 C.3     1  UNL1        0.0576
     26 C          67.3966   94.3786   14.6861 C.3     1  UNL1        0.0173
@<TRIPOS>BOND
     1    24    25    1
     2    25    26    1
     3    25    18    1
     4    18    19    1
     5    19    20    1
     6    20    21    1
     7    21    17    1
     8    17     1    1
     9     1     2   ar
    10     2     3   ar
    11     3     4   ar
    12     4     5   ar
    13     5     6   ar
    14     5     7   ar
    15     7     8   ar
    16     8     9   ar
    17     9    10    1
    18    10    11    1
    19    11    12    1
    20    12    13    1
    21    13    14   am
    22    14    15    2
    23    21    22    1
    24    22    23    1
    25    23    18    1
    26     6     1   ar
    27    14     8    1
    28     9     4   ar
    29    13    16    1
@<TRIPOS>MOLECULE
*****
 26 29 0 0 0
SMALL
GASTEIGER

@<TRIPOS>ATOM
      1 C          58.9143   90.3738    5.9462 C.ar    1  UNL1        0.1385
      2 C          57.9454   91.3136    5.2920 C.ar    1  UNL1        0.0384
      3 C          58.4049   92.2117    4.1819 C.ar    1  UNL1        0.0203
      4 C          59.8333   92.1700    3.7261 C.ar    1  UNL1        0.0602
      5 C          60.8022   91.2302    4.3803 C.ar    1  UNL1        0.0204
      6 C          60.3427   90.3321    5.4903 C.ar    1  UNL1        0.0384
      7 C          62.1383   91.4100    3.7226 C.ar    1  UNL1        0.0233
      8 C          61.9951   92.4610    2.6619 C.ar    1  UNL1        0.1140
      9 N          60.5707   92.9306    2.6641 N.ar    1  UNL1       -0.3236
     10 C          59.9266   93.9681    1.7930 C.3     1  UNL1        0.1079
     11 C          60.5482   94.7922    0.7045 C.3     1  UNL1        0.0457
     12 C          61.9671   94.7822    0.2184 C.3     1  UNL1        0.0917
     13 N          63.1151   93.9458    0.7007 N.am    1  UNL1       -0.2996
     14 C          63.1276   92.9127    1.7881 C.2     1  UNL1        0.2618
     15 O          64.4469   92.2429    2.0344 O.2     1  UNL1       -0.2686
     16 H          63.9739   94.0945    0.2429 H       1  UNL1        0.1498
     17 O          58.4547   89.4756    7.0562 O.3     1  UNL1       -0.4791
     18 N          61.3547   86.6360    8.9997 N.3     1  UNL1       -0.2737
     19 C          60.4406   86.1486    7.9148 C.3     1  UNL1        0.0758
     20 C          59.4740   87.0951    7.2670 C.3     1  UNL1        0.0609
     21 C          59.4214   88.5291    7.7041 C.3     1  UNL1        0.1687
     22 C          60.3355   89.0165    8.7889 C.3     1  UNL1        0.0609
     23 C          61.3021   88.0699    9.4367 C.3     1  UNL1        0.0758
     24 C          62.3402   85.5415   11.1399 C.3     1  UNL1        0.0173
     25 C          62.3213   85.6894    9.6474 C.3     1  UNL1        0.0576
     26 C          63.2691   84.8907    8.8025 C.3     1  UNL1        0.0173
@<TRIPOS>BOND
     1    24    25    1
     2    25    26    1
     3    25    18    1
     4    18    19    1
     5    19    20    1
     6    20    21    1
     7    21    17    1
     8    17     1    1
     9     1     2   ar
    10     2     3   ar
    11     3     4   ar
    12     4     5   ar
    13     5     6   ar
    14     5     7   ar
    15     7     8   ar
    16     8     9   ar
    17     9    10    1
    18    10    11    1
    19    11    12    1
    20    12    13    1
    21    13    14   am
    22    14    15    2
    23    21    22    1
    24    22    23    1
    25    23    18    1
    26     6     1   ar
    27    14     8    1
    28     9     4   ar
    29    13    16    1
@<TRIPOS>MOLECULE
*****
 26 29 0 0 0
SMALL
GASTEIGER

@<TRIPOS>ATOM
      1 C          62.6511   88.5424   11.3195 C.ar    1  UNL1        0.1385
      2 C          63.1050   88.4267   12.7445 C.ar    1  UNL1        0.0384
      3 C          63.9275   89.5192   13.3608 C.ar    1  UNL1        0.0203
      4 C          64.2960   90.7276   12.5521 C.ar    1  UNL1        0.0602
      5 C          63.8421   90.8434   11.1271 C.ar    1  UNL1        0.0204
      6 C          63.0196   89.7508   10.5108 C.ar    1  UNL1        0.0384
      7 C          64.3558   92.1426   10.5810 C.ar    1  UNL1        0.0233
      8 C          65.1272   92.8297   11.6686 C.ar    1  UNL1        0.1140
      9 N          65.0903   91.9552   12.8866 N.ar    1  UNL1       -0.3236
     10 C          65.7108   92.1970   14.2308 C.3     1  UNL1        0.1079
     11 C          66.5216   93.3732   14.6886 C.3     1  UNL1        0.0457
     12 C          66.9119   94.5978   13.9155 C.3     1  UNL1        0.0917
     13 N          66.5881   94.9489   12.4936 N.am    1  UNL1       -0.2996
     14 C          65.7938   94.1621   11.4936 C.2     1  UNL1        0.2618
     15 O          65.6467   94.7906   10.1397 O.2     1  UNL1       -0.2686
     16 H          66.9439   95.8096   12.1745 H       1  UNL1        0.1498
     17 O          61.8286   87.4498   10.7033 O.3     1  UNL1       -0.4791
     18 N          63.0154   83.1466   11.2721 N.3     1  UNL1       -0.2737
     19 C          63.1789   83.7987    9.9312 C.3     1  UNL1        0.0758
     20 C          62.7833   85.2331    9.7416 C.3     1  UNL1        0.0609
     21 C          62.2242   86.0153   10.8929 C.3     1  UNL1        0.1687
     22 C          62.0607   85.3632   12.2338 C.3     1  UNL1        0.0609
     23 C          62.4563   83.9288   12.4234 C.3     1  UNL1        0.0758
     24 C          63.2316   80.7304   10.3419 C.3     1  UNL1        0.0173
     25 C          63.4110   81.7122   11.4616 C.3     1  UNL1        0.0576
     26 C          63.9861   81.2596   12.7710 C.3     1  UNL1        0.0173
@<TRIPOS>BOND
     1    24    25    1
     2    25    26    1
     3    25    18    1
     4    18    19    1
     5    19    20    1
     6    20    21    1
     7    21    17    1
     8    17     1    1
     9     1     2   ar
    10     2     3   ar
    11     3     4   ar
    12     4     5   ar
    13     5     6   ar
    14     5     7   ar
    15     7     8   ar
    16     8     9   ar
    17     9    10    1
    18    10    11    1
    19    11    12    1
    20    12    13    1
    21    13    14   am
    22    14    15    2
    23    21    22    1
    24    22    23    1
    25    23    18    1
    26     6     1   ar
    27    14     8    1
    28     9     4   ar
    29    13    16    1
