@<TRIPOS>MOLECULE
*****
 46 49 0 0 0
SMALL
GASTEIGER

@<TRIPOS>ATOM
      1 N          62.5801   88.0172   12.1887 N.3     1  UNL1       -0.2699
      2 C          63.8701   87.6218   12.8440 C.3     1  UNL1        0.0924
      3 C          64.1671   88.0676   14.2451 C.3     1  UNL1        0.0950
      4 N          64.4122   89.5189   14.5344 N.am    1  UNL1       -0.2706
      5 C          63.4958   90.2646   15.4585 C.2     1  UNL1        0.4020
      6 O          62.3344   89.5590   16.0934 O.2     1  UNL1       -0.2264
      7 H          65.1745   89.9820   14.1176 H       1  UNL1        0.1527
      8 O          63.7409   91.7159   15.7478 O.3     1  UNL1       -0.4291
      9 C          64.9724   92.1342   16.4950 C.3     1  UNL1        0.2447
     10 C          66.2156   92.5070   15.7430 C.ar    1  UNL1        0.0714
     11 C          66.2707   93.0611   14.3502 C.ar    1  UNL1        0.1053
     12 N          67.7111   93.2877   13.9982 N.ar    1  UNL1       -0.2350
     13 C          68.5462   92.8736   15.1734 C.ar    1  UNL1        0.1343
     14 S          67.6219   92.3911   16.2519 S.2     1  UNL1       -0.0652
     15 C          64.2190   87.0620   15.3570 C.3     1  UNL1        0.0474
     16 C          63.9539   85.6136   15.0713 C.ar    1  UNL1       -0.0205
     17 C          64.9479   84.8099   14.2865 C.ar    1  UNL1       -0.0042
     18 C          64.6828   83.3613   14.0007 C.ar    1  UNL1       -0.0003
     19 C          63.4237   82.7166   14.4998 C.ar    1  UNL1       -0.0000
     20 C          62.4297   83.5205   15.2846 C.ar    1  UNL1       -0.0003
     21 C          62.6948   84.9689   15.5703 C.ar    1  UNL1       -0.0042
     22 C          62.1259   89.4462   12.2283 C.3     1  UNL1        0.0924
     23 C          61.8089   90.1681   10.9522 C.3     1  UNL1        0.0950
     24 N          62.9070   90.8247   10.1693 N.am    1  UNL1       -0.2706
     25 C          63.9907   91.5770   10.8832 C.2     1  UNL1        0.4020
     26 O          63.9763   91.6726   12.3801 O.2     1  UNL1       -0.2264
     27 H          62.9165   90.7619    9.1868 H       1  UNL1        0.1527
     28 O          65.0888   92.2336   10.1003 O.3     1  UNL1       -0.4274
     29 C          66.1712   92.9878   10.8141 C.3     1  UNL1        0.2621
     30 C          66.5221   94.3817   10.3851 C.ar    1  UNL1        0.1323
     31 N          67.2869   94.7581    9.1508 N.ar    1  UNL1       -0.2374
     32 C          67.4074   96.2529    9.1179 C.ar    1  UNL1        0.1062
     33 C          66.7170   96.8004   10.3319 C.ar    1  UNL1        0.0573
     34 S          66.1699   95.6439   11.1150 S.2     1  UNL1       -0.0666
     35 C          60.3938   90.2333   10.4590 C.3     1  UNL1        0.0474
     36 C          59.9326   89.3013    9.3780 C.ar    1  UNL1       -0.0205
     37 C          59.9268   89.7554    7.9483 C.ar    1  UNL1       -0.0042
     38 C          59.4656   88.8234    6.8673 C.ar    1  UNL1       -0.0003
     39 C          59.0101   87.4374    7.2158 C.ar    1  UNL1       -0.0000
     40 C          59.0159   86.9833    8.6454 C.ar    1  UNL1       -0.0003
     41 C          59.4771   87.9153    9.7265 C.ar    1  UNL1       -0.0042
     42 C          61.7442   86.9836   11.4938 C.3     1  UNL1        0.0721
     43 C          62.2182   84.9365   11.7858 C.3     1  UNL1        0.0014
     44 C          62.4023   85.9187   10.6672 C.3     1  UNL1        0.0147
     45 C          62.5863   86.9010    9.5486 C.3     1  UNL1        0.0014
     46 C          63.0603   84.8540    9.8406 C.3     1  UNL1        0.0014
@<TRIPOS>BOND
     1    43    44    1
     2    44    45    1
     3    44    46    1
     4    44    42    1
     5    42     1    1
     6     1    22    1
     7    23    22    1
     8    23    35    1
     9    35    36    1
    10    36    37   ar
    11    37    38   ar
    12    38    39   ar
    13    39    40   ar
    14    40    41   ar
    15    23    24    1
    16    24    25   am
    17    25    26    2
    18    25    28    1
    19    28    29    1
    20    29    30    1
    21    30    31   ar
    22    31    32   ar
    23    32    33   ar
    24    33    34   ar
    25     1     2    1
    26     3     2    1
    27     3    15    1
    28    15    16    1
    29    16    17   ar
    30    17    18   ar
    31    18    19   ar
    32    19    20   ar
    33    20    21   ar
    34     3     4    1
    35     4     5   am
    36     5     6    2
    37     5     8    1
    38     8     9    1
    39     9    10    1
    40    10    11   ar
    41    11    12   ar
    42    12    13   ar
    43    13    14   ar
    44    41    36   ar
    45    34    30   ar
    46    21    16   ar
    47    14    10   ar
    48    24    27    1
    49     4     7    1
@<TRIPOS>MOLECULE
*****
 46 49 0 0 0
SMALL
GASTEIGER

@<TRIPOS>ATOM
      1 N          62.6073   89.4821   11.4859 N.3     1  UNL1       -0.2699
      2 C          62.4409   88.4518   10.4085 C.3     1  UNL1        0.0924
      3 C          61.4903   87.3082   10.6047 C.3     1  UNL1        0.0950
      4 N          61.4245   86.6064   11.9287 N.am    1  UNL1       -0.2706
      5 C          62.2801   85.4007   12.1818 C.2     1  UNL1        0.4020
      6 O          63.2016   84.8968   11.1109 O.2     1  UNL1       -0.2264
      7 H          60.8196   86.9371   12.6316 H       1  UNL1        0.1527
      8 O          62.2142   84.6989   13.5059 O.3     1  UNL1       -0.4291
      9 C          63.1685   83.5827   13.8114 C.3     1  UNL1        0.2447
     10 C          62.8204   82.1736   13.4330 C.ar    1  UNL1        0.0714
     11 C          63.3184   81.4363   12.2253 C.ar    1  UNL1        0.1053
     12 N          62.7190   80.0614   12.2417 N.ar    1  UNL1       -0.2350
     13 C          61.8505   79.9489   13.4595 C.ar    1  UNL1        0.1343
     14 S          61.9132   81.2543   14.1958 S.2     1  UNL1       -0.0652
     15 C          60.6056   86.8664    9.4768 C.3     1  UNL1        0.0474
     16 C          61.1653   86.0208    8.3715 C.ar    1  UNL1       -0.0205
     17 C          62.6222   85.6640    8.3645 C.ar    1  UNL1       -0.0042
     18 C          63.1820   84.8184    7.2592 C.ar    1  UNL1       -0.0003
     19 C          62.2848   84.3297    6.1608 C.ar    1  UNL1       -0.0000
     20 C          60.8278   84.6866    6.1679 C.ar    1  UNL1       -0.0003
     21 C          60.2681   85.5322    7.2732 C.ar    1  UNL1       -0.0042
     22 C          63.8466   89.4902   12.3308 C.3     1  UNL1        0.0924
     23 C          64.0635   90.5844   13.3337 C.3     1  UNL1        0.0950
     24 N          64.7388   91.8581   12.9198 N.am    1  UNL1       -0.2706
     25 C          66.0866   92.2080   13.4775 C.2     1  UNL1        0.4020
     26 O          66.7591   91.2841   14.4491 O.2     1  UNL1       -0.2264
     27 H          64.2974   92.4646   12.2821 H       1  UNL1        0.1527
     28 O          66.7619   93.4818   13.0635 O.3     1  UNL1       -0.4274
     29 C          66.1632   94.3308   11.9815 C.3     1  UNL1        0.2621
     30 C          66.7920   94.3639   10.6200 C.ar    1  UNL1        0.1323
     31 N          67.6827   93.3087   10.0342 N.ar    1  UNL1       -0.2374
     32 C          68.0816   93.7506    8.6575 C.ar    1  UNL1        0.1062
     33 C          67.4374   95.0791    8.3923 C.ar    1  UNL1        0.0573
     34 S          66.6403   95.4581    9.6052 S.2     1  UNL1       -0.0666
     35 C          63.6049   90.4047   14.7506 C.3     1  UNL1        0.0474
     36 C          63.6133   89.0406   15.3744 C.ar    1  UNL1       -0.0205
     37 C          62.8905   88.8025   16.6671 C.ar    1  UNL1       -0.0042
     38 C          62.8989   87.4384   17.2908 C.ar    1  UNL1       -0.0003
     39 C          63.6301   86.3123   16.6220 C.ar    1  UNL1       -0.0000
     40 C          64.3529   86.5504   15.3294 C.ar    1  UNL1       -0.0003
     41 C          64.3446   87.9145   14.7056 C.ar    1  UNL1       -0.0042
     42 C          61.5344   90.5042   11.7184 C.3     1  UNL1        0.0721
     43 C          59.8405   90.5460   10.4421 C.3     1  UNL1        0.0014
     44 C          60.1026   90.0740   11.8415 C.3     1  UNL1        0.0147
     45 C          60.3648   89.6019   13.2409 C.3     1  UNL1        0.0014
     46 C          58.6710   89.6438   11.9646 C.3     1  UNL1        0.0014
@<TRIPOS>BOND
     1    43    44    1
     2    44    45    1
     3    44    46    1
     4    44    42    1
     5    42     1    1
     6     1    22    1
     7    23    22    1
     8    23    35    1
     9    35    36    1
    10    36    37   ar
    11    37    38   ar
    12    38    39   ar
    13    39    40   ar
    14    40    41   ar
    15    23    24    1
    16    24    25   am
    17    25    26    2
    18    25    28    1
    19    28    29    1
    20    29    30    1
    21    30    31   ar
    22    31    32   ar
    23    32    33   ar
    24    33    34   ar
    25     1     2    1
    26     3     2    1
    27     3    15    1
    28    15    16    1
    29    16    17   ar
    30    17    18   ar
    31    18    19   ar
    32    19    20   ar
    33    20    21   ar
    34     3     4    1
    35     4     5   am
    36     5     6    2
    37     5     8    1
    38     8     9    1
    39     9    10    1
    40    10    11   ar
    41    11    12   ar
    42    12    13   ar
    43    13    14   ar
    44    41    36   ar
    45    34    30   ar
    46    21    16   ar
    47    14    10   ar
    48    24    27    1
    49     4     7    1
@<TRIPOS>MOLECULE
*****
 46 49 0 0 0
SMALL
GASTEIGER

@<TRIPOS>ATOM
      1 N          62.6052   88.8491   12.0259 N.3     1  UNL1       -0.2699
      2 C          62.5905   88.1533   10.6972 C.3     1  UNL1        0.0924
      3 C          61.3952   87.3455   10.2867 C.3     1  UNL1        0.0950
      4 N          60.4489   87.8787    9.2522 N.am    1  UNL1       -0.2706
      5 C          60.3550   87.2169    7.9094 C.2     1  UNL1        0.4020
      6 O          61.2075   86.0218    7.6011 O.2     1  UNL1       -0.2264
      7 H          59.8894   88.6631    9.4546 H       1  UNL1        0.1527
      8 O          59.4087   87.7501    6.8749 O.3     1  UNL1       -0.4291
      9 C          58.7856   89.1026    7.0546 C.3     1  UNL1        0.2447
     10 C          59.0101   90.1741    6.0292 C.ar    1  UNL1        0.0714
     11 C          60.3382   90.6073    5.4829 C.ar    1  UNL1        0.1053
     12 N          60.0948   91.7015    4.4861 N.ar    1  UNL1       -0.2350
     13 C          58.6163   91.9445    4.4164 C.ar    1  UNL1        0.1343
     14 S          57.9458   91.0006    5.3701 S.2     1  UNL1       -0.0652
     15 C          61.1460   86.0043   10.9108 C.3     1  UNL1        0.0474
     16 C          62.2811   85.0418   11.0981 C.ar    1  UNL1       -0.0205
     17 C          62.7289   84.6702   12.4806 C.ar    1  UNL1       -0.0042
     18 C          63.8640   83.7076   12.6679 C.ar    1  UNL1       -0.0003
     19 C          64.5512   83.1166   11.4727 C.ar    1  UNL1       -0.0000
     20 C          64.1033   83.4882   10.0902 C.ar    1  UNL1       -0.0003
     21 C          62.9683   84.4508    9.9029 C.ar    1  UNL1       -0.0042
     22 C          63.8997   89.0371   12.7599 C.3     1  UNL1        0.0924
     23 C          64.0514   90.1658   13.7361 C.3     1  UNL1        0.0950
     24 N          64.5209   91.5093   13.2622 N.am    1  UNL1       -0.2706
     25 C          65.8536   92.0369   13.7047 C.2     1  UNL1        0.4020
     26 O          66.7166   91.2211   14.6210 O.2     1  UNL1       -0.2264
     27 H          63.9545   92.0447   12.6608 H       1  UNL1        0.1527
     28 O          66.3231   93.3804   13.2308 O.3     1  UNL1       -0.4274
     29 C          65.9430   93.8687   11.8644 C.3     1  UNL1        0.2621
     30 C          66.8702   93.6512   10.7054 C.ar    1  UNL1        0.1323
     31 N          67.7708   92.4683   10.5068 N.ar    1  UNL1       -0.2374
     32 C          68.5167   92.6644    9.2202 C.ar    1  UNL1        0.1062
     33 C          68.0770   93.9687    8.6238 C.ar    1  UNL1        0.0573
     34 S          67.0594   94.5785    9.5417 S.2     1  UNL1       -0.0666
     35 C          63.7334   89.9510   15.1862 C.3     1  UNL1        0.0474
     36 C          63.6427   88.5584   15.7359 C.ar    1  UNL1       -0.0205
     37 C          62.9166   88.3062   17.0240 C.ar    1  UNL1       -0.0042
     38 C          62.8259   86.9135   17.5737 C.ar    1  UNL1       -0.0003
     39 C          63.4613   85.7729   16.8352 C.ar    1  UNL1       -0.0000
     40 C          64.1873   86.0250   15.5471 C.ar    1  UNL1       -0.0003
     41 C          64.2780   87.4178   14.9974 C.ar    1  UNL1       -0.0042
     42 C          61.3252   89.3570   12.6207 C.3     1  UNL1        0.0721
     43 C          59.2182   89.3653   12.3745 C.3     1  UNL1        0.0014
     44 C          60.3594   90.1308   11.7730 C.3     1  UNL1        0.0147
     45 C          61.5005   90.8963   11.1716 C.3     1  UNL1        0.0014
     46 C          59.3936   90.9046   10.9254 C.3     1  UNL1        0.0014
@<TRIPOS>BOND
     1    43    44    1
     2    44    45    1
     3    44    46    1
     4    44    42    1
     5    42     1    1
     6     1    22    1
     7    23    22    1
     8    23    35    1
     9    35    36    1
    10    36    37   ar
    11    37    38   ar
    12    38    39   ar
    13    39    40   ar
    14    40    41   ar
    15    23    24    1
    16    24    25   am
    17    25    26    2
    18    25    28    1
    19    28    29    1
    20    29    30    1
    21    30    31   ar
    22    31    32   ar
    23    32    33   ar
    24    33    34   ar
    25     1     2    1
    26     3     2    1
    27     3    15    1
    28    15    16    1
    29    16    17   ar
    30    17    18   ar
    31    18    19   ar
    32    19    20   ar
    33    20    21   ar
    34     3     4    1
    35     4     5   am
    36     5     6    2
    37     5     8    1
    38     8     9    1
    39     9    10    1
    40    10    11   ar
    41    11    12   ar
    42    12    13   ar
    43    13    14   ar
    44    41    36   ar
    45    34    30   ar
    46    21    16   ar
    47    14    10   ar
    48    24    27    1
    49     4     7    1
@<TRIPOS>MOLECULE
*****
 46 49 0 0 0
SMALL
GASTEIGER

@<TRIPOS>ATOM
      1 N          62.9079   86.1941   12.2666 N.3     1  UNL1       -0.2699
      2 C          63.8487   85.3987   13.1224 C.3     1  UNL1        0.0924
      3 C          63.7484   85.4740   14.6171 C.3     1  UNL1        0.0950
      4 N          63.9550   86.7842   15.3176 N.am    1  UNL1       -0.2706
      5 C          63.0759   87.1642   16.4720 C.2     1  UNL1        0.4020
      6 O          61.9902   86.2340   16.9259 O.2     1  UNL1       -0.2264
      7 H          64.6675   87.3947   15.0197 H       1  UNL1        0.1527
      8 O          63.2824   88.4744   17.1725 O.3     1  UNL1       -0.4291
      9 C          62.9255   89.7579   16.4831 C.3     1  UNL1        0.2447
     10 C          64.0041   90.6177   15.8937 C.ar    1  UNL1        0.0714
     11 C          64.3861   91.9929   16.3550 C.ar    1  UNL1        0.1053
     12 N          65.5082   92.4784   15.4859 N.ar    1  UNL1       -0.2350
     13 C          65.8196   91.4032   14.4874 C.ar    1  UNL1        0.1343
     14 S          64.8901   90.2532   14.7394 S.2     1  UNL1       -0.0652
     15 C          63.4417   84.2390   15.4114 C.3     1  UNL1        0.0474
     16 C          63.0962   82.9607   14.7069 C.ar    1  UNL1       -0.0205
     17 C          61.6675   82.5107   14.6273 C.ar    1  UNL1       -0.0042
     18 C          61.3220   81.2323   13.9227 C.ar    1  UNL1       -0.0003
     19 C          62.4052   80.4039   13.2977 C.ar    1  UNL1       -0.0000
     20 C          63.8339   80.8540   13.3773 C.ar    1  UNL1       -0.0003
     21 C          64.1794   82.1324   14.0819 C.ar    1  UNL1       -0.0042
     22 C          62.7331   87.6638   12.5102 C.3     1  UNL1        0.0924
     23 C          62.1132   88.5305   11.4544 C.3     1  UNL1        0.0950
     24 N          62.9637   89.4925   10.6791 N.am    1  UNL1       -0.2706
     25 C          63.2718   90.8465   11.2462 C.2     1  UNL1        0.4020
     26 O          62.7295   91.2386   12.5886 O.2     1  UNL1       -0.2264
     27 H          63.3197   89.2352    9.7981 H       1  UNL1        0.1527
     28 O          64.1224   91.8085   10.4709 O.3     1  UNL1       -0.4274
     29 C          65.2559   92.5209   11.1474 C.3     1  UNL1        0.2621
     30 C          66.4567   92.9430   10.3536 C.ar    1  UNL1        0.1323
     31 N          67.6630   92.0998   10.0638 N.ar    1  UNL1       -0.2374
     32 C          68.6138   92.9180    9.2414 C.ar    1  UNL1        0.1062
     33 C          67.9953   94.2670    9.0231 C.ar    1  UNL1        0.0573
     34 S          66.6621   94.2824    9.7104 S.2     1  UNL1       -0.0666
     35 C          60.6427   88.4351   11.1740 C.3     1  UNL1        0.0474
     36 C          60.1556   88.3013    9.7616 C.ar    1  UNL1       -0.0205
     37 C          59.6069   86.9915    9.2784 C.ar    1  UNL1       -0.0042
     38 C          59.1199   86.8577    7.8660 C.ar    1  UNL1       -0.0003
     39 C          59.1815   88.0336    6.9368 C.ar    1  UNL1       -0.0000
     40 C          59.7302   89.3433    7.4200 C.ar    1  UNL1       -0.0003
     41 C          60.2173   89.4772    8.8324 C.ar    1  UNL1       -0.0042
     42 C          62.1420   85.5198   11.1672 C.3     1  UNL1        0.0721
     43 C          62.8304   85.9219    9.2014 C.3     1  UNL1        0.0014
     44 C          62.8712   84.7348   10.1173 C.3     1  UNL1        0.0147
     45 C          62.9119   83.5477   11.0333 C.3     1  UNL1        0.0014
     46 C          63.6003   83.9498    9.0675 C.3     1  UNL1        0.0014
@<TRIPOS>BOND
     1    43    44    1
     2    44    45    1
     3    44    46    1
     4    44    42    1
     5    42     1    1
     6     1    22    1
     7    23    22    1
     8    23    35    1
     9    35    36    1
    10    36    37   ar
    11    37    38   ar
    12    38    39   ar
    13    39    40   ar
    14    40    41   ar
    15    23    24    1
    16    24    25   am
    17    25    26    2
    18    25    28    1
    19    28    29    1
    20    29    30    1
    21    30    31   ar
    22    31    32   ar
    23    32    33   ar
    24    33    34   ar
    25     1     2    1
    26     3     2    1
    27     3    15    1
    28    15    16    1
    29    16    17   ar
    30    17    18   ar
    31    18    19   ar
    32    19    20   ar
    33    20    21   ar
    34     3     4    1
    35     4     5   am
    36     5     6    2
    37     5     8    1
    38     8     9    1
    39     9    10    1
    40    10    11   ar
    41    11    12   ar
    42    12    13   ar
    43    13    14   ar
    44    41    36   ar
    45    34    30   ar
    46    21    16   ar
    47    14    10   ar
    48    24    27    1
    49     4     7    1
@<TRIPOS>MOLECULE
*****
 46 49 0 0 0
SMALL
GASTEIGER

@<TRIPOS>ATOM
      1 N          62.3371   85.9478   12.0728 N.3     1  UNL1       -0.2699
      2 C          62.9101   87.3338   12.0446 C.3     1  UNL1        0.0924
      3 C          62.2750   88.3907   11.1906 C.3     1  UNL1        0.0950
      4 N          63.1292   89.4209   10.5129 N.am    1  UNL1       -0.2706
      5 C          63.2846   90.7836   11.1202 C.2     1  UNL1        0.4020
      6 O          62.5858   91.1162   12.4051 O.2     1  UNL1       -0.2264
      7 H          63.5878   89.2025    9.6696 H       1  UNL1        0.1527
      8 O          64.1387   91.8137   10.4425 O.3     1  UNL1       -0.4291
      9 C          65.2276   92.5060   11.2073 C.3     1  UNL1        0.2447
     10 C          66.4322   93.0336   10.4857 C.ar    1  UNL1        0.0714
     11 C          67.7118   92.2891   10.2445 C.ar    1  UNL1        0.1053
     12 N          68.6390   93.1937    9.4883 N.ar    1  UNL1       -0.2350
     13 C          67.9325   94.4974    9.2622 C.ar    1  UNL1        0.1343
     14 S          66.5686   94.3986    9.8786 S.2     1  UNL1       -0.0652
     15 C          60.7856   88.4176   11.0141 C.3     1  UNL1        0.0474
     16 C          60.1898   88.2740    9.6451 C.ar    1  UNL1       -0.0205
     17 C          60.1598   89.4490    8.7132 C.ar    1  UNL1       -0.0042
     18 C          59.5640   89.3054    7.3440 C.ar    1  UNL1       -0.0003
     19 C          58.9982   87.9868    6.9068 C.ar    1  UNL1       -0.0000
     20 C          59.0282   86.8118    7.8388 C.ar    1  UNL1       -0.0003
     21 C          59.6240   86.9554    9.2079 C.ar    1  UNL1       -0.0042
     22 C          62.1132   85.2553   13.3843 C.3     1  UNL1        0.0924
     23 C          63.2149   85.1996   14.4007 C.3     1  UNL1        0.0950
     24 N          63.5941   86.4338   15.1643 N.am    1  UNL1       -0.2706
     25 C          62.8521   86.7991   16.4157 C.2     1  UNL1        0.4020
     26 O          61.7310   85.9302   16.9036 O.2     1  UNL1       -0.2264
     27 H          64.3299   87.0041   14.8440 H       1  UNL1        0.1527
     28 O          63.2312   88.0333   17.1792 O.3     1  UNL1       -0.4274
     29 C          62.8319   89.3850   16.6660 C.3     1  UNL1        0.2621
     30 C          63.8211   90.2231   15.9116 C.ar    1  UNL1        0.1323
     31 N          64.0947   91.6807   16.1366 N.ar    1  UNL1       -0.2374
     32 C          65.1530   92.1093   15.1639 C.ar    1  UNL1        0.1062
     33 C          65.5334   90.9165   14.3376 C.ar    1  UNL1        0.0573
     34 S          64.7102   89.7509   14.7997 S.2     1  UNL1       -0.0666
     35 C          63.9375   83.9096   14.6536 C.3     1  UNL1        0.0474
     36 C          63.2965   82.6055   14.2819 C.ar    1  UNL1       -0.0205
     37 C          64.1096   81.5310   13.6229 C.ar    1  UNL1       -0.0042
     38 C          63.4685   80.2269   13.2511 C.ar    1  UNL1       -0.0003
     39 C          62.0143   79.9972   13.5383 C.ar    1  UNL1       -0.0000
     40 C          61.2012   81.0717   14.1972 C.ar    1  UNL1       -0.0003
     41 C          61.8422   82.3759   14.5691 C.ar    1  UNL1       -0.0042
     42 C          61.9881   85.2544   10.7893 C.3     1  UNL1        0.0721
     43 C          63.0880   83.4721   11.1266 C.3     1  UNL1        0.0014
     44 C          63.0415   84.4991   10.0344 C.3     1  UNL1        0.0147
     45 C          62.9949   85.5260    8.9421 C.3     1  UNL1        0.0014
     46 C          64.0948   83.7438    9.2794 C.3     1  UNL1        0.0014
@<TRIPOS>BOND
     1    43    44    1
     2    44    45    1
     3    44    46    1
     4    44    42    1
     5    42     1    1
     6     1    22    1
     7    23    22    1
     8    23    35    1
     9    35    36    1
    10    36    37   ar
    11    37    38   ar
    12    38    39   ar
    13    39    40   ar
    14    40    41   ar
    15    23    24    1
    16    24    25   am
    17    25    26    2
    18    25    28    1
    19    28    29    1
    20    29    30    1
    21    30    31   ar
    22    31    32   ar
    23    32    33   ar
    24    33    34   ar
    25     1     2    1
    26     3     2    1
    27     3    15    1
    28    15    16    1
    29    16    17   ar
    30    17    18   ar
    31    18    19   ar
    32    19    20   ar
    33    20    21   ar
    34     3     4    1
    35     4     5   am
    36     5     6    2
    37     5     8    1
    38     8     9    1
    39     9    10    1
    40    10    11   ar
    41    11    12   ar
    42    12    13   ar
    43    13    14   ar
    44    41    36   ar
    45    34    30   ar
    46    21    16   ar
    47    14    10   ar
    48    24    27    1
    49     4     7    1
@<TRIPOS>MOLECULE
*****
 46 49 0 0 0
SMALL
GASTEIGER

@<TRIPOS>ATOM
      1 N          62.5366   89.4366   12.0809 N.3     1  UNL1       -0.2699
      2 C          63.0146   88.1710   11.4329 C.3     1  UNL1        0.0924
      3 C          62.2997   86.8785   11.6938 C.3     1  UNL1        0.0950
      4 N          62.7825   85.9596   12.7767 N.am    1  UNL1       -0.2706
      5 C          63.5616   84.7277   12.4229 C.2     1  UNL1        0.4020
      6 O          63.8578   84.4145   10.9862 O.2     1  UNL1       -0.2264
      7 H          62.5880   86.1652   13.7197 H       1  UNL1        0.1527
      8 O          64.0443   83.8088   13.5058 O.3     1  UNL1       -0.4291
      9 C          64.1247   82.3320   13.2558 C.3     1  UNL1        0.2447
     10 C          62.9227   81.4654   13.4888 C.ar    1  UNL1        0.0714
     11 C          62.7600   80.0439   13.0386 C.ar    1  UNL1        0.1053
     12 N          61.4091   79.5681   13.4844 N.ar    1  UNL1       -0.2350
     13 C          60.7369   80.6956   14.2102 C.ar    1  UNL1        0.1343
     14 S          61.6723   81.8683   14.2130 S.2     1  UNL1       -0.0652
     15 C          61.1019   86.5047   10.8718 C.3     1  UNL1        0.0474
     16 C          61.2796   86.0300    9.4601 C.ar    1  UNL1       -0.0205
     17 C          60.1310   86.0932    8.4974 C.ar    1  UNL1       -0.0042
     18 C          60.3087   85.6185    7.0856 C.ar    1  UNL1       -0.0003
     19 C          61.6350   85.0807    6.6365 C.ar    1  UNL1       -0.0000
     20 C          62.7836   85.0176    7.5992 C.ar    1  UNL1       -0.0003
     21 C          62.6059   85.4923    9.0109 C.ar    1  UNL1       -0.0042
     22 C          62.8178   89.6885   13.5326 C.3     1  UNL1        0.0924
     23 C          64.2186   89.5726   14.0563 C.3     1  UNL1        0.0950
     24 N          65.1190   90.7722   14.0615 N.am    1  UNL1       -0.2706
     25 C          64.9269   91.8498   15.0871 C.2     1  UNL1        0.4020
     26 O          63.8343   91.7278   16.1075 O.2     1  UNL1       -0.2264
     27 H          65.8361   90.8523   13.3917 H       1  UNL1        0.1527
     28 O          65.8273   93.0495   15.0922 O.3     1  UNL1       -0.4274
     29 C          67.0684   93.0593   14.2499 C.3     1  UNL1        0.2621
     30 C          66.9603   93.1372   12.7558 C.ar    1  UNL1        0.1323
     31 N          67.6623   92.2472   11.7734 N.ar    1  UNL1       -0.2374
     32 C          67.2671   92.6788   10.3922 C.ar    1  UNL1        0.1062
     33 C          66.3207   93.8355   10.5211 C.ar    1  UNL1        0.0573
     34 S          66.1312   94.1188   11.9818 S.2     1  UNL1       -0.0666
     35 C          64.7190   88.2570   14.5750 C.3     1  UNL1        0.0474
     36 C          64.0034   87.5743   15.7027 C.ar    1  UNL1       -0.0205
     37 C          63.9978   86.0768   15.7902 C.ar    1  UNL1       -0.0042
     38 C          63.2823   85.3941   16.9179 C.ar    1  UNL1       -0.0003
     39 C          62.5722   86.2087   17.9582 C.ar    1  UNL1       -0.0000
     40 C          62.5778   87.7061   17.8707 C.ar    1  UNL1       -0.0003
     41 C          63.2934   88.3889   16.7430 C.ar    1  UNL1       -0.0042
     42 C          61.7775   90.4503   11.2771 C.3     1  UNL1        0.0721
     43 C          59.7087   89.9906   11.3717 C.3     1  UNL1        0.0014
     44 C          60.7443   90.0011   10.2867 C.3     1  UNL1        0.0147
     45 C          61.7799   90.0116    9.2017 C.3     1  UNL1        0.0014
     46 C          59.7112   89.5519    9.2963 C.3     1  UNL1        0.0014
@<TRIPOS>BOND
     1    43    44    1
     2    44    45    1
     3    44    46    1
     4    44    42    1
     5    42     1    1
     6     1    22    1
     7    23    22    1
     8    23    35    1
     9    35    36    1
    10    36    37   ar
    11    37    38   ar
    12    38    39   ar
    13    39    40   ar
    14    40    41   ar
    15    23    24    1
    16    24    25   am
    17    25    26    2
    18    25    28    1
    19    28    29    1
    20    29    30    1
    21    30    31   ar
    22    31    32   ar
    23    32    33   ar
    24    33    34   ar
    25     1     2    1
    26     3     2    1
    27     3    15    1
    28    15    16    1
    29    16    17   ar
    30    17    18   ar
    31    18    19   ar
    32    19    20   ar
    33    20    21   ar
    34     3     4    1
    35     4     5   am
    36     5     6    2
    37     5     8    1
    38     8     9    1
    39     9    10    1
    40    10    11   ar
    41    11    12   ar
    42    12    13   ar
    43    13    14   ar
    44    41    36   ar
    45    34    30   ar
    46    21    16   ar
    47    14    10   ar
    48    24    27    1
    49     4     7    1
@<TRIPOS>MOLECULE
*****
 46 49 0 0 0
SMALL
GASTEIGER

@<TRIPOS>ATOM
      1 N          63.5103   90.3573   13.4064 N.3     1  UNL1       -0.2699
      2 C          62.3622   89.6721   12.7263 C.3     1  UNL1        0.0924
      3 C          62.6211   88.7057   11.6088 C.3     1  UNL1        0.0950
      4 N          63.3006   87.3983   11.8902 N.am    1  UNL1       -0.2706
      5 C          62.4849   86.1521   12.0679 C.2     1  UNL1        0.4020
      6 O          60.9898   86.2132   11.9643 O.2     1  UNL1       -0.2264
      7 H          64.2819   87.3582   11.9581 H       1  UNL1        0.1527
      8 O          63.1644   84.8448   12.3492 O.3     1  UNL1       -0.4291
      9 C          62.6713   83.9672   13.4613 C.3     1  UNL1        0.2447
     10 C          62.5529   82.4866   13.2520 C.ar    1  UNL1        0.0714
     11 C          63.1076   81.7128   12.0929 C.ar    1  UNL1        0.1053
     12 N          62.7566   80.2678   12.2897 N.ar    1  UNL1       -0.2350
     13 C          61.9848   80.1485   13.5704 C.ar    1  UNL1        0.1343
     14 S          61.8589   81.5198   14.1652 S.2     1  UNL1       -0.0652
     15 C          62.2004   89.0465   10.2099 C.3     1  UNL1        0.0474
     16 C          61.4724   88.0330    9.3777 C.ar    1  UNL1       -0.0205
     17 C          62.2058   86.8430    8.8336 C.ar    1  UNL1       -0.0042
     18 C          61.4778   85.8294    8.0013 C.ar    1  UNL1       -0.0003
     19 C          60.0164   86.0058    7.7131 C.ar    1  UNL1       -0.0000
     20 C          59.2829   87.1958    8.2573 C.ar    1  UNL1       -0.0003
     21 C          60.0109   88.2093    9.0895 C.ar    1  UNL1       -0.0042
     22 C          63.8212   91.7906   13.0918 C.3     1  UNL1        0.0924
     23 C          65.1457   92.1560   12.4900 C.3     1  UNL1        0.0950
     24 N          65.2312   93.2622   11.4805 N.am    1  UNL1       -0.2706
     25 C          65.7852   94.5985   11.8772 C.2     1  UNL1        0.4020
     26 O          66.2537   94.8287   13.2834 O.2     1  UNL1       -0.2264
     27 H          64.9238   93.1111   10.5575 H       1  UNL1        0.1527
     28 O          65.8707   95.7046   10.8677 O.3     1  UNL1       -0.4274
     29 C          66.8855   95.6370    9.7652 C.3     1  UNL1        0.2621
     30 C          67.6060   94.3511    9.4868 C.ar    1  UNL1        0.1323
     31 N          68.0046   93.3253   10.5061 N.ar    1  UNL1       -0.2374
     32 C          68.6993   92.2055    9.7896 C.ar    1  UNL1        0.1062
     33 C          68.7302   92.5393    8.3275 C.ar    1  UNL1        0.0573
     34 S          68.0545   93.8653    8.1404 S.2     1  UNL1       -0.0666
     35 C          66.3848   91.4153   12.8978 C.3     1  UNL1        0.0474
     36 C          67.2254   91.9260   14.0303 C.ar    1  UNL1       -0.0205
     37 C          66.5864   92.2687   15.3434 C.ar    1  UNL1       -0.0042
     38 C          67.4269   92.7794   16.4759 C.ar    1  UNL1       -0.0003
     39 C          68.9065   92.9475   16.2953 C.ar    1  UNL1       -0.0000
     40 C          69.5455   92.6048   14.9822 C.ar    1  UNL1       -0.0003
     41 C          68.7049   92.0941   13.8497 C.ar    1  UNL1       -0.0042
     42 C          64.3475   89.6092   14.4011 C.3     1  UNL1        0.0721
     43 C          63.3923   90.4376   16.1045 C.3     1  UNL1        0.0014
     44 C          63.7167   89.0484   15.6412 C.3     1  UNL1        0.0147
     45 C          64.0411   87.6591   15.1779 C.3     1  UNL1        0.0014
     46 C          63.0860   88.4875   16.8812 C.3     1  UNL1        0.0014
@<TRIPOS>BOND
     1    43    44    1
     2    44    45    1
     3    44    46    1
     4    44    42    1
     5    42     1    1
     6     1    22    1
     7    23    22    1
     8    23    35    1
     9    35    36    1
    10    36    37   ar
    11    37    38   ar
    12    38    39   ar
    13    39    40   ar
    14    40    41   ar
    15    23    24    1
    16    24    25   am
    17    25    26    2
    18    25    28    1
    19    28    29    1
    20    29    30    1
    21    30    31   ar
    22    31    32   ar
    23    32    33   ar
    24    33    34   ar
    25     1     2    1
    26     3     2    1
    27     3    15    1
    28    15    16    1
    29    16    17   ar
    30    17    18   ar
    31    18    19   ar
    32    19    20   ar
    33    20    21   ar
    34     3     4    1
    35     4     5   am
    36     5     6    2
    37     5     8    1
    38     8     9    1
    39     9    10    1
    40    10    11   ar
    41    11    12   ar
    42    12    13   ar
    43    13    14   ar
    44    41    36   ar
    45    34    30   ar
    46    21    16   ar
    47    14    10   ar
    48    24    27    1
    49     4     7    1
@<TRIPOS>MOLECULE
*****
 46 49 0 0 0
SMALL
GASTEIGER

@<TRIPOS>ATOM
      1 N          62.5076   89.3349   12.4654 N.3     1  UNL1       -0.2699
      2 C          62.9963   88.0948   11.7774 C.3     1  UNL1        0.0924
      3 C          62.0317   86.9994   11.4315 C.3     1  UNL1        0.0950
      4 N          62.5018   85.5761   11.3758 N.am    1  UNL1       -0.2706
      5 C          63.0078   85.0033   10.0852 C.2     1  UNL1        0.4020
      6 O          63.0438   85.8539    8.8502 O.2     1  UNL1       -0.2264
      7 H          62.4781   85.0178   12.1864 H       1  UNL1        0.1527
      8 O          63.4779   83.5800   10.0295 O.3     1  UNL1       -0.4291
      9 C          64.3300   83.0278   11.1335 C.3     1  UNL1        0.2447
     10 C          63.7051   82.2140   12.2278 C.ar    1  UNL1        0.0714
     11 C          64.4370   81.5185   13.3371 C.ar    1  UNL1        0.1053
     12 N          63.4229   80.8274   14.1997 N.ar    1  UNL1       -0.2350
     13 C          62.0643   81.0959   13.6235 C.ar    1  UNL1        0.1343
     14 S          62.2386   81.9528   12.4048 S.2     1  UNL1       -0.0652
     15 C          60.5970   87.3274   11.1414 C.3     1  UNL1        0.0474
     16 C          60.1543   87.5718    9.7292 C.ar    1  UNL1       -0.0205
     17 C          59.8401   86.4128    8.8305 C.ar    1  UNL1       -0.0042
     18 C          59.3974   86.6572    7.4182 C.ar    1  UNL1       -0.0003
     19 C          59.2690   88.0607    6.9048 C.ar    1  UNL1       -0.0000
     20 C          59.5832   89.2198    7.8036 C.ar    1  UNL1       -0.0003
     21 C          60.0259   88.9754    9.2158 C.ar    1  UNL1       -0.0042
     22 C          62.4030   89.3710   13.9613 C.3     1  UNL1        0.0924
     23 C          63.6158   89.6726   14.7908 C.3     1  UNL1        0.0950
     24 N          63.9638   91.0936   15.1216 N.am    1  UNL1       -0.2706
     25 C          65.3736   91.5785   14.9567 C.2     1  UNL1        0.4020
     26 O          66.4355   90.6422   14.4610 O.2     1  UNL1       -0.2264
     27 H          63.2668   91.7082   15.4470 H       1  UNL1        0.1527
     28 O          65.7216   92.9995   15.2875 O.3     1  UNL1       -0.4274
     29 C          66.8065   93.7026   14.5268 C.3     1  UNL1        0.2621
     30 C          66.8318   93.6421   13.0282 C.ar    1  UNL1        0.1323
     31 N          67.4669   92.5648   12.1998 N.ar    1  UNL1       -0.2374
     32 C          67.2541   92.9052   10.7546 C.ar    1  UNL1        0.1062
     33 C          66.4875   94.1929   10.6896 C.ar    1  UNL1        0.0573
     34 S          66.2265   94.6483   12.0948 S.2     1  UNL1       -0.0666
     35 C          64.4806   88.5530   15.2897 C.3     1  UNL1        0.0474
     36 C          63.8781   87.2089   15.5727 C.ar    1  UNL1       -0.0205
     37 C          64.1296   86.0624   14.6387 C.ar    1  UNL1       -0.0042
     38 C          63.5271   84.7182   14.9217 C.ar    1  UNL1       -0.0003
     39 C          62.6731   84.5205   16.1389 C.ar    1  UNL1       -0.0000
     40 C          62.4215   85.6668   17.0729 C.ar    1  UNL1       -0.0003
     41 C          63.0240   87.0111   16.7899 C.ar    1  UNL1       -0.0042
     42 C          62.1235   90.5390   11.6575 C.3     1  UNL1        0.0721
     43 C          62.3629   90.7498    9.5602 C.3     1  UNL1        0.0014
     44 C          63.1343   91.1977   10.7661 C.3     1  UNL1        0.0147
     45 C          63.9058   91.6456   11.9720 C.3     1  UNL1        0.0014
     46 C          64.1451   91.8564    9.8748 C.3     1  UNL1        0.0014
@<TRIPOS>BOND
     1    43    44    1
     2    44    45    1
     3    44    46    1
     4    44    42    1
     5    42     1    1
     6     1    22    1
     7    23    22    1
     8    23    35    1
     9    35    36    1
    10    36    37   ar
    11    37    38   ar
    12    38    39   ar
    13    39    40   ar
    14    40    41   ar
    15    23    24    1
    16    24    25   am
    17    25    26    2
    18    25    28    1
    19    28    29    1
    20    29    30    1
    21    30    31   ar
    22    31    32   ar
    23    32    33   ar
    24    33    34   ar
    25     1     2    1
    26     3     2    1
    27     3    15    1
    28    15    16    1
    29    16    17   ar
    30    17    18   ar
    31    18    19   ar
    32    19    20   ar
    33    20    21   ar
    34     3     4    1
    35     4     5   am
    36     5     6    2
    37     5     8    1
    38     8     9    1
    39     9    10    1
    40    10    11   ar
    41    11    12   ar
    42    12    13   ar
    43    13    14   ar
    44    41    36   ar
    45    34    30   ar
    46    21    16   ar
    47    14    10   ar
    48    24    27    1
    49     4     7    1
@<TRIPOS>MOLECULE
*****
 46 49 0 0 0
SMALL
GASTEIGER

@<TRIPOS>ATOM
      1 N          62.5624   84.9881   12.2643 N.3     1  UNL1       -0.2699
      2 C          63.7116   85.0263   13.2277 C.3     1  UNL1        0.0924
      3 C          63.4519   85.1369   14.7008 C.3     1  UNL1        0.0950
      4 N          63.7216   86.4280   15.4152 N.am    1  UNL1       -0.2706
      5 C          62.8302   86.8629   16.5405 C.2     1  UNL1        0.4020
      6 O          61.6692   86.0067   16.9514 O.2     1  UNL1       -0.2264
      7 H          64.4836   86.9900   15.1454 H       1  UNL1        0.1527
      8 O          63.0999   88.1541   17.2548 O.3     1  UNL1       -0.4291
      9 C          62.7963   89.4604   16.5831 C.3     1  UNL1        0.2447
     10 C          63.9001   90.2488   15.9427 C.ar    1  UNL1        0.0714
     11 C          64.7567   89.7967   14.7973 C.ar    1  UNL1        0.1053
     12 N          65.7271   90.8962   14.4820 N.ar    1  UNL1       -0.2350
     13 C          65.4702   92.0279   15.4324 C.ar    1  UNL1        0.1343
     14 S          64.3411   91.6278   16.3352 S.2     1  UNL1       -0.0652
     15 C          62.9225   83.9562   15.4598 C.3     1  UNL1        0.0474
     16 C          62.7391   82.6393   14.7656 C.ar    1  UNL1       -0.0205
     17 C          63.9363   81.8544   14.3178 C.ar    1  UNL1       -0.0042
     18 C          63.7530   80.5374   13.6235 C.ar    1  UNL1       -0.0003
     19 C          62.3723   80.0053   13.3771 C.ar    1  UNL1       -0.0000
     20 C          61.1751   80.7903   13.8249 C.ar    1  UNL1       -0.0003
     21 C          61.3585   82.1072   14.5191 C.ar    1  UNL1       -0.0042
     22 C          61.6088   86.1435   12.1882 C.3     1  UNL1        0.0924
     23 C          61.8481   87.2498   11.2040 C.3     1  UNL1        0.0950
     24 N          62.9034   88.2805   11.4761 N.am    1  UNL1       -0.2706
     25 C          62.5195   89.7208   11.6437 C.2     1  UNL1        0.4020
     26 O          61.0803   90.1305   11.5392 O.2     1  UNL1       -0.2264
     27 H          63.8480   88.0117   11.5447 H       1  UNL1        0.1527
     28 O          63.5747   90.7515   11.9158 O.3     1  UNL1       -0.4274
     29 C          64.1127   91.5885   10.7934 C.3     1  UNL1        0.2621
     30 C          65.1122   92.6706   11.0770 C.ar    1  UNL1        0.1323
     31 N          65.3279   93.3472   12.3983 N.ar    1  UNL1       -0.2374
     32 C          66.4204   94.3607   12.2271 C.ar    1  UNL1        0.1062
     33 C          66.8797   94.3105   10.8000 C.ar    1  UNL1        0.0573
     34 S          66.0712   93.2660   10.0893 S.2     1  UNL1       -0.0666
     35 C          61.0320   87.3255    9.9476 C.3     1  UNL1        0.0474
     36 C          61.3299   86.4029    8.8031 C.ar    1  UNL1       -0.0205
     37 C          62.7128   85.8494    8.6262 C.ar    1  UNL1       -0.0042
     38 C          63.0107   84.9267    7.4817 C.ar    1  UNL1       -0.0003
     39 C          61.9257   84.5575    6.5141 C.ar    1  UNL1       -0.0000
     40 C          60.5428   85.1109    6.6909 C.ar    1  UNL1       -0.0003
     41 C          60.2449   86.0336    7.8354 C.ar    1  UNL1       -0.0042
     42 C          62.3669   83.7946   11.3771 C.3     1  UNL1        0.0721
     43 C          62.7019   81.8678   10.5552 C.3     1  UNL1        0.0014
     44 C          63.5570   83.0715   10.8195 C.3     1  UNL1        0.0147
     45 C          64.4121   84.2752   11.0838 C.3     1  UNL1        0.0014
     46 C          64.7471   82.3485   10.2620 C.3     1  UNL1        0.0014
@<TRIPOS>BOND
     1    43    44    1
     2    44    45    1
     3    44    46    1
     4    44    42    1
     5    42     1    1
     6     1    22    1
     7    23    22    1
     8    23    35    1
     9    35    36    1
    10    36    37   ar
    11    37    38   ar
    12    38    39   ar
    13    39    40   ar
    14    40    41   ar
    15    23    24    1
    16    24    25   am
    17    25    26    2
    18    25    28    1
    19    28    29    1
    20    29    30    1
    21    30    31   ar
    22    31    32   ar
    23    32    33   ar
    24    33    34   ar
    25     1     2    1
    26     3     2    1
    27     3    15    1
    28    15    16    1
    29    16    17   ar
    30    17    18   ar
    31    18    19   ar
    32    19    20   ar
    33    20    21   ar
    34     3     4    1
    35     4     5   am
    36     5     6    2
    37     5     8    1
    38     8     9    1
    39     9    10    1
    40    10    11   ar
    41    11    12   ar
    42    12    13   ar
    43    13    14   ar
    44    41    36   ar
    45    34    30   ar
    46    21    16   ar
    47    14    10   ar
    48    24    27    1
    49     4     7    1
