@<TRIPOS>MOLECULE
*****
 33 37 0 0 0
SMALL
GASTEIGER

@<TRIPOS>ATOM
      1 C          62.7432   87.2756   11.8153 C.2     1  UNL1        0.2506
      2 O          63.4140   87.3955   13.1515 O.2     1  UNL1       -0.2699
      3 N          61.9191   88.4113   11.2852 N.am    1  UNL1       -0.2723
      4 C          61.2482   88.2914    9.9489 C.3     1  UNL1        0.1257
      5 C          60.4240   89.4271    9.4189 C.3     1  UNL1        0.1637
      6 O          60.2707   90.6827   10.2251 O.3     1  UNL1       -0.3502
      7 C          60.9415   90.8026   11.5614 C.3     1  UNL1        0.1622
      8 C          61.7657   89.6669   12.0914 C.3     1  UNL1        0.1097
      9 C          62.8097   84.8622    7.2141 C.3     1  UNL1        0.0310
     10 C          62.9298   84.8133    8.7084 C.ar    1  UNL1       -0.0216
     11 C          63.2033   83.5089    9.3966 C.ar    1  UNL1       -0.0026
     12 C          63.3235   83.4600   10.8910 C.ar    1  UNL1        0.0207
     13 C          63.1701   84.7156   11.6972 C.ar    1  UNL1        0.1072
     14 C          62.8966   86.0200   11.0090 C.ar    1  UNL1        0.0726
     15 C          62.7765   86.0689    9.5147 C.ar    1  UNL1        0.0018
     16 N          63.2903   84.6667   13.1916 N.ar    1  UNL1       -0.1477
     17 N          64.5705   84.6474   13.9731 N.ar    1  UNL1       -0.1447
     18 C          64.2227   84.5973   15.4313 C.ar    1  UNL1        0.1446
     19 C          62.7276   84.5856   15.5512 C.ar    1  UNL1        0.1446
     20 N          62.1513   84.6285   14.1669 N.ar    1  UNL1       -0.1447
     21 C          62.4365   89.7868   13.4277 C.3     1  UNL1        0.0510
     22 C          63.6538   90.6497   13.5811 C.ar    1  UNL1        0.0086
     23 C          64.2304   91.3520   12.3877 C.ar    1  UNL1        0.0189
     24 C          65.4478   92.2149   12.5410 C.ar    1  UNL1        0.1027
     25 C          66.0886   92.3754   13.8878 C.ar    1  UNL1        0.0232
     26 C          65.5119   91.6730   15.0812 C.ar    1  UNL1        0.0309
     27 C          64.2946   90.8101   14.9278 C.ar    1  UNL1        0.1363
     28 F          63.7180   90.1078   16.1212 F       1  UNL1       -0.2045
     29 N          66.0244   92.9173   11.3476 N.ar    1  UNL1       -0.1478
     30 N          65.6294   94.2753   10.8479 N.ar    1  UNL1       -0.1447
     31 C          66.4581   94.5823    9.6359 C.ar    1  UNL1        0.1446
     32 C          67.3653   93.4140    9.3865 C.ar    1  UNL1        0.1446
     33 N          67.0972   92.3850   10.4445 N.ar    1  UNL1       -0.1447
@<TRIPOS>BOND
     1     9    10    1
     2    10    11   ar
     3    11    12   ar
     4    12    13   ar
     5    13    16    1
     6    16    17   ar
     7    17    18   ar
     8    18    19   ar
     9    19    20   ar
    10    13    14   ar
    11    14     1    1
    12     1     2    2
    13     1     3   am
    14     3     4    1
    15     4     5    1
    16     5     6    1
    17     6     7    1
    18     7     8    1
    19     8    21    1
    20    21    22    1
    21    22    23   ar
    22    23    24   ar
    23    24    29    1
    24    29    30   ar
    25    30    31   ar
    26    31    32   ar
    27    32    33   ar
    28    24    25   ar
    29    25    26   ar
    30    26    27   ar
    31    27    28    1
    32    14    15   ar
    33    15    10   ar
    34    20    16   ar
    35     8     3    1
    36    27    22   ar
    37    33    29   ar
@<TRIPOS>MOLECULE
*****
 33 37 0 0 0
SMALL
GASTEIGER

@<TRIPOS>ATOM
      1 C          62.9814   86.5709   12.4593 C.2     1  UNL1        0.2506
      2 O          63.5321   87.4823   13.5158 O.2     1  UNL1       -0.2699
      3 N          62.0437   87.1087   11.4194 N.am    1  UNL1       -0.2723
      4 C          61.4930   86.1973   10.3629 C.3     1  UNL1        0.1257
      5 C          60.5552   86.7351    9.3229 C.3     1  UNL1        0.1637
      6 O          60.1682   88.1842    9.3395 O.3     1  UNL1       -0.3502
      7 C          60.7189   89.0956   10.3960 C.3     1  UNL1        0.1622
      8 C          61.6566   88.5578   11.4359 C.3     1  UNL1        0.1097
      9 C          64.3546   82.3098    9.8217 C.3     1  UNL1        0.0310
     10 C          64.0551   82.9912   11.1239 C.ar    1  UNL1       -0.0216
     11 C          64.1426   82.2236   12.4096 C.ar    1  UNL1       -0.0026
     12 C          63.8431   82.9051   13.7119 C.ar    1  UNL1        0.0207
     13 C          63.4560   84.3542   13.7285 C.ar    1  UNL1        0.1072
     14 C          63.3685   85.1218   12.4428 C.ar    1  UNL1        0.0726
     15 C          63.6680   84.4403   11.1405 C.ar    1  UNL1        0.0018
     16 N          63.1565   85.0356   15.0307 N.ar    1  UNL1       -0.1477
     17 N          64.1312   85.8155   15.8624 N.ar    1  UNL1       -0.1447
     18 C          63.4068   86.3187   17.0757 C.ar    1  UNL1        0.1446
     19 C          61.9843   85.8499   16.9938 C.ar    1  UNL1        0.1446
     20 N          61.8297   85.0569   15.7300 N.ar    1  UNL1       -0.1447
     21 C          62.2073   89.4692   12.4924 C.3     1  UNL1        0.0510
     22 C          63.2828   90.4556   12.1457 C.ar    1  UNL1        0.0086
     23 C          64.2765   90.8785   13.1867 C.ar    1  UNL1        0.0189
     24 C          65.3521   91.8650   12.8401 C.ar    1  UNL1        0.1027
     25 C          65.4339   92.4285   11.4524 C.ar    1  UNL1        0.0232
     26 C          64.4402   92.0056   10.4113 C.ar    1  UNL1        0.0309
     27 C          63.3647   91.0192   10.7580 C.ar    1  UNL1        0.1363
     28 F          62.3710   90.5963    9.7170 F       1  UNL1       -0.2045
     29 N          66.3457   92.2878   13.8811 N.ar    1  UNL1       -0.1478
     30 N          66.0231   92.7574   15.2687 N.ar    1  UNL1       -0.1447
     31 C          67.3144   93.0751   15.9625 C.ar    1  UNL1        0.1446
     32 C          68.4352   92.8020   15.0037 C.ar    1  UNL1        0.1446
     33 N          67.8365   92.3154   13.7173 N.ar    1  UNL1       -0.1447
@<TRIPOS>BOND
     1     9    10    1
     2    10    11   ar
     3    11    12   ar
     4    12    13   ar
     5    13    16    1
     6    16    17   ar
     7    17    18   ar
     8    18    19   ar
     9    19    20   ar
    10    13    14   ar
    11    14     1    1
    12     1     2    2
    13     1     3   am
    14     3     4    1
    15     4     5    1
    16     5     6    1
    17     6     7    1
    18     7     8    1
    19     8    21    1
    20    21    22    1
    21    22    23   ar
    22    23    24   ar
    23    24    29    1
    24    29    30   ar
    25    30    31   ar
    26    31    32   ar
    27    32    33   ar
    28    24    25   ar
    29    25    26   ar
    30    26    27   ar
    31    27    28    1
    32    14    15   ar
    33    15    10   ar
    34    20    16   ar
    35     8     3    1
    36    27    22   ar
    37    33    29   ar
@<TRIPOS>MOLECULE
*****
 33 37 0 0 0
SMALL
GASTEIGER

@<TRIPOS>ATOM
      1 C          63.6184   86.9674   13.2922 C.2     1  UNL1        0.2506
      2 O          64.3282   87.4466   14.5238 O.2     1  UNL1       -0.2699
      3 N          63.1041   87.9577   12.2898 N.am    1  UNL1       -0.2723
      4 C          62.3943   87.4785   11.0583 C.3     1  UNL1        0.1257
      5 C          61.8800   88.4688   10.0559 C.3     1  UNL1        0.1637
      6 O          62.0754   89.9382   10.2850 O.3     1  UNL1       -0.3502
      7 C          62.7851   90.4174   11.5166 C.3     1  UNL1        0.1622
      8 C          63.2995   89.4272   12.5189 C.3     1  UNL1        0.1097
      9 C          63.6471   82.8679   10.0995 C.3     1  UNL1        0.0310
     10 C          63.4374   83.4482   11.4668 C.ar    1  UNL1       -0.0216
     11 C          63.0324   82.5591   12.6049 C.ar    1  UNL1       -0.0026
     12 C          62.8227   83.1393   13.9721 C.ar    1  UNL1        0.0207
     13 C          63.0180   84.6088   14.2012 C.ar    1  UNL1        0.1072
     14 C          63.4231   85.4979   13.0631 C.ar    1  UNL1        0.0726
     15 C          63.6328   84.9176   11.6959 C.ar    1  UNL1        0.0018
     16 N          62.8083   85.1890   15.5684 N.ar    1  UNL1       -0.1477
     17 N          61.4866   85.5447   16.1821 N.ar    1  UNL1       -0.1447
     18 C          61.7449   86.0910   17.5550 C.ar    1  UNL1        0.1446
     19 C          63.2263   86.0730   17.7898 C.ar    1  UNL1        0.1446
     20 N          63.8835   85.5156   16.5621 N.ar    1  UNL1       -0.1447
     21 C          64.0092   89.9064   13.7505 C.3     1  UNL1        0.0510
     22 C          64.8931   91.1164   13.6837 C.ar    1  UNL1        0.0086
     23 C          65.4350   91.5774   12.3632 C.ar    1  UNL1        0.0189
     24 C          66.3190   92.7875   12.2964 C.ar    1  UNL1        0.1027
     25 C          66.6611   93.5365   13.5502 C.ar    1  UNL1        0.0232
     26 C          66.1191   93.0754   14.8708 C.ar    1  UNL1        0.0309
     27 C          65.2352   91.8654   14.9375 C.ar    1  UNL1        0.1363
     28 F          64.6933   91.4044   16.2580 F       1  UNL1       -0.2045
     29 N          66.8608   93.2484   10.9759 N.ar    1  UNL1       -0.1478
     30 N          66.4136   94.4607   10.2141 N.ar    1  UNL1       -0.1447
     31 C          67.2214   94.5396    8.9527 C.ar    1  UNL1        0.1446
     32 C          68.1680   93.3761    8.9349 C.ar    1  UNL1        0.1446
     33 N          67.9451   92.5781   10.1853 N.ar    1  UNL1       -0.1447
@<TRIPOS>BOND
     1     9    10    1
     2    10    11   ar
     3    11    12   ar
     4    12    13   ar
     5    13    16    1
     6    16    17   ar
     7    17    18   ar
     8    18    19   ar
     9    19    20   ar
    10    13    14   ar
    11    14     1    1
    12     1     2    2
    13     1     3   am
    14     3     4    1
    15     4     5    1
    16     5     6    1
    17     6     7    1
    18     7     8    1
    19     8    21    1
    20    21    22    1
    21    22    23   ar
    22    23    24   ar
    23    24    29    1
    24    29    30   ar
    25    30    31   ar
    26    31    32   ar
    27    32    33   ar
    28    24    25   ar
    29    25    26   ar
    30    26    27   ar
    31    27    28    1
    32    14    15   ar
    33    15    10   ar
    34    20    16   ar
    35     8     3    1
    36    27    22   ar
    37    33    29   ar
@<TRIPOS>MOLECULE
*****
 33 37 0 0 0
SMALL
GASTEIGER

@<TRIPOS>ATOM
      1 C          62.7026   88.1483   11.0169 C.2     1  UNL1        0.2506
      2 O          63.0738   89.5910   10.8413 O.2     1  UNL1       -0.2699
      3 N          63.1287   87.4091   12.2506 N.am    1  UNL1       -0.2723
      4 C          62.7575   85.9664   12.4263 C.3     1  UNL1        0.1257
      5 C          63.1836   85.2272   13.6600 C.3     1  UNL1        0.1637
      6 O          63.9809   85.9307   14.7180 O.3     1  UNL1       -0.3502
      7 C          64.3521   87.3734   14.5424 C.3     1  UNL1        0.1622
      8 C          63.9260   88.1126   13.3087 C.3     1  UNL1        0.1097
      9 C          62.4353   84.7352    7.1081 C.3     1  UNL1        0.0310
     10 C          61.7717   85.7383    8.0044 C.ar    1  UNL1       -0.0216
     11 C          60.3109   86.0379    7.8427 C.ar    1  UNL1       -0.0026
     12 C          59.6473   87.0411    8.7391 C.ar    1  UNL1        0.0207
     13 C          60.4445   87.7445    9.7971 C.ar    1  UNL1        0.1072
     14 C          61.9053   87.4449    9.9588 C.ar    1  UNL1        0.0726
     15 C          62.5689   86.4417    9.0625 C.ar    1  UNL1        0.0018
     16 N          59.7809   88.7476   10.6935 N.ar    1  UNL1       -0.1477
     17 N          59.1154   88.4537   12.0052 N.ar    1  UNL1       -0.1447
     18 C          58.5895   89.7452   12.5579 C.ar    1  UNL1        0.1446
     19 C          58.9300   90.8373   11.5877 C.ar    1  UNL1        0.1446
     20 N          59.6663   90.2208   10.4354 N.ar    1  UNL1       -0.1447
     21 C          64.2972   89.5553   13.1331 C.3     1  UNL1        0.0510
     22 C          64.5554   90.4149   14.3348 C.ar    1  UNL1        0.0086
     23 C          65.8670   91.1283   14.4787 C.ar    1  UNL1        0.0189
     24 C          66.1253   91.9880   15.6805 C.ar    1  UNL1        0.1027
     25 C          65.0719   92.1343   16.7383 C.ar    1  UNL1        0.0232
     26 C          63.7603   91.4210   16.5943 C.ar    1  UNL1        0.0309
     27 C          63.5020   90.5613   15.3926 C.ar    1  UNL1        0.1363
     28 F          62.1904   89.8480   15.2487 F       1  UNL1       -0.2045
     29 N          67.4369   92.7013   15.8245 N.ar    1  UNL1       -0.1478
     30 N          67.6571   94.1785   15.6852 N.ar    1  UNL1       -0.1447
     31 C          69.1149   94.4529   15.9076 C.ar    1  UNL1        0.1446
     32 C          69.7958   93.1452   16.1844 C.ar    1  UNL1        0.1446
     33 N          68.7587   92.0627   16.1330 N.ar    1  UNL1       -0.1447
@<TRIPOS>BOND
     1     9    10    1
     2    10    11   ar
     3    11    12   ar
     4    12    13   ar
     5    13    16    1
     6    16    17   ar
     7    17    18   ar
     8    18    19   ar
     9    19    20   ar
    10    13    14   ar
    11    14     1    1
    12     1     2    2
    13     1     3   am
    14     3     4    1
    15     4     5    1
    16     5     6    1
    17     6     7    1
    18     7     8    1
    19     8    21    1
    20    21    22    1
    21    22    23   ar
    22    23    24   ar
    23    24    29    1
    24    29    30   ar
    25    30    31   ar
    26    31    32   ar
    27    32    33   ar
    28    24    25   ar
    29    25    26   ar
    30    26    27   ar
    31    27    28    1
    32    14    15   ar
    33    15    10   ar
    34    20    16   ar
    35     8     3    1
    36    27    22   ar
    37    33    29   ar
@<TRIPOS>MOLECULE
*****
 33 37 0 0 0
SMALL
GASTEIGER

@<TRIPOS>ATOM
      1 C          62.5884   88.6971   11.6084 C.2     1  UNL1        0.2506
      2 O          62.4640   90.1914   11.5680 O.2     1  UNL1       -0.2699
      3 N          63.3024   88.0345   12.7490 N.am    1  UNL1       -0.2723
      4 C          63.4268   86.5402   12.7894 C.3     1  UNL1        0.1257
      5 C          64.1408   85.8776   13.9302 C.3     1  UNL1        0.1637
      6 O          64.7303   86.7093   15.0305 O.3     1  UNL1       -0.3502
      7 C          64.6059   88.2036   14.9901 C.3     1  UNL1        0.1622
      8 C          63.8919   88.8662   13.8494 C.3     1  UNL1        0.1097
      9 C          63.1283   85.0733    7.9237 C.3     1  UNL1        0.0310
     10 C          62.2688   86.0535    8.6657 C.ar    1  UNL1       -0.0216
     11 C          60.8199   86.2020    8.3073 C.ar    1  UNL1       -0.0026
     12 C          59.9605   87.1823    9.0493 C.ar    1  UNL1        0.0207
     13 C          60.5499   88.0139   10.1496 C.ar    1  UNL1        0.1072
     14 C          61.9989   87.8654   10.5080 C.ar    1  UNL1        0.0726
     15 C          62.8583   86.8852    9.7660 C.ar    1  UNL1        0.0018
     16 N          59.6905   88.9942   10.8916 N.ar    1  UNL1       -0.1477
     17 N          58.8755   88.7017   12.1164 N.ar    1  UNL1       -0.1447
     18 C          58.1765   89.9657   12.5208 C.ar    1  UNL1        0.1446
     19 C          58.5594   91.0394   11.5459 C.ar    1  UNL1        0.1446
     20 N          59.4951   90.4390   10.5389 N.ar    1  UNL1       -0.1447
     21 C          63.7675   90.3605   13.8091 C.3     1  UNL1        0.0510
     22 C          64.9998   91.2155   13.7947 C.ar    1  UNL1        0.0086
     23 C          65.6340   91.5952   12.4895 C.ar    1  UNL1        0.0189
     24 C          66.8663   92.4504   12.4751 C.ar    1  UNL1        0.1027
     25 C          67.4644   92.9258   13.7660 C.ar    1  UNL1        0.0232
     26 C          66.8302   92.5460   15.0712 C.ar    1  UNL1        0.0309
     27 C          65.5979   91.6909   15.0856 C.ar    1  UNL1        0.1363
     28 F          64.9637   91.3112   16.3908 F       1  UNL1       -0.2045
     29 N          67.5005   92.8301   11.1699 N.ar    1  UNL1       -0.1478
     30 N          67.2994   94.1220   10.4348 N.ar    1  UNL1       -0.1447
     31 C          68.1217   94.0750    9.1812 C.ar    1  UNL1        0.1446
     32 C          68.8311   92.7539    9.1415 C.ar    1  UNL1        0.1446
     33 N          68.4472   91.9845   10.3706 N.ar    1  UNL1       -0.1447
@<TRIPOS>BOND
     1     9    10    1
     2    10    11   ar
     3    11    12   ar
     4    12    13   ar
     5    13    16    1
     6    16    17   ar
     7    17    18   ar
     8    18    19   ar
     9    19    20   ar
    10    13    14   ar
    11    14     1    1
    12     1     2    2
    13     1     3   am
    14     3     4    1
    15     4     5    1
    16     5     6    1
    17     6     7    1
    18     7     8    1
    19     8    21    1
    20    21    22    1
    21    22    23   ar
    22    23    24   ar
    23    24    29    1
    24    29    30   ar
    25    30    31   ar
    26    31    32   ar
    27    32    33   ar
    28    24    25   ar
    29    25    26   ar
    30    26    27   ar
    31    27    28    1
    32    14    15   ar
    33    15    10   ar
    34    20    16   ar
    35     8     3    1
    36    27    22   ar
    37    33    29   ar
@<TRIPOS>MOLECULE
*****
 33 37 0 0 0
SMALL
GASTEIGER

@<TRIPOS>ATOM
      1 C          62.2726   84.8063   12.2053 C.2     1  UNL1        0.2506
      2 O          61.5858   85.8701   13.0095 O.2     1  UNL1       -0.2699
      3 N          62.5450   85.0272   10.7469 N.am    1  UNL1       -0.2723
      4 C          63.2317   83.9635    9.9426 C.3     1  UNL1        0.1257
      5 C          63.5042   84.1844    8.4842 C.3     1  UNL1        0.1637
      6 O          63.0899   85.4691    7.8300 O.3     1  UNL1       -0.3502
      7 C          62.4031   86.5329    8.6343 C.3     1  UNL1        0.1622
      8 C          62.1307   86.3119   10.0927 C.3     1  UNL1        0.1097
      9 C          62.6894   79.6282   12.0906 C.3     1  UNL1        0.0310
     10 C          62.8953   80.9325   12.8021 C.ar    1  UNL1       -0.0216
     11 C          63.5154   80.9522   14.1678 C.ar    1  UNL1       -0.0026
     12 C          63.7212   82.2566   14.8793 C.ar    1  UNL1        0.0207
     13 C          63.3070   83.5413   14.2251 C.ar    1  UNL1        0.1072
     14 C          62.6869   83.5216   12.8595 C.ar    1  UNL1        0.0726
     15 C          62.4810   82.2172   12.1480 C.ar    1  UNL1        0.0018
     16 N          63.5128   84.8457   14.9366 N.ar    1  UNL1       -0.1477
     17 N          62.7899   85.3012   16.1695 N.ar    1  UNL1       -0.1447
     18 C          63.3080   86.6606   16.5350 C.ar    1  UNL1        0.1446
     19 C          64.3512   87.0453   15.5281 C.ar    1  UNL1        0.1446
     20 N          64.4777   85.9236   14.5402 N.ar    1  UNL1       -0.1447
     21 C          61.4440   87.3757   10.8969 C.3     1  UNL1        0.0510
     22 C          62.0404   88.7490   10.9886 C.ar    1  UNL1        0.0086
     23 C          62.8067   89.1535   12.2129 C.ar    1  UNL1        0.0189
     24 C          63.4031   90.5269   12.3047 C.ar    1  UNL1        0.1027
     25 C          63.2332   91.4955   11.1721 C.ar    1  UNL1        0.0232
     26 C          62.4668   91.0909    9.9477 C.ar    1  UNL1        0.0309
     27 C          61.8704   89.7176    9.8560 C.ar    1  UNL1        0.1363
     28 F          61.1041   89.3130    8.6317 F       1  UNL1       -0.2045
     29 N          64.1694   90.9315   13.5290 N.ar    1  UNL1       -0.1478
     30 N          63.6149   91.0476   14.9179 N.ar    1  UNL1       -0.1447
     31 C          64.7275   91.4789   15.8267 C.ar    1  UNL1        0.1446
     32 C          65.9698   91.6293   14.9995 C.ar    1  UNL1        0.1446
     33 N          65.6248   91.2909   13.5795 N.ar    1  UNL1       -0.1447
@<TRIPOS>BOND
     1     9    10    1
     2    10    11   ar
     3    11    12   ar
     4    12    13   ar
     5    13    16    1
     6    16    17   ar
     7    17    18   ar
     8    18    19   ar
     9    19    20   ar
    10    13    14   ar
    11    14     1    1
    12     1     2    2
    13     1     3   am
    14     3     4    1
    15     4     5    1
    16     5     6    1
    17     6     7    1
    18     7     8    1
    19     8    21    1
    20    21    22    1
    21    22    23   ar
    22    23    24   ar
    23    24    29    1
    24    29    30   ar
    25    30    31   ar
    26    31    32   ar
    27    32    33   ar
    28    24    25   ar
    29    25    26   ar
    30    26    27   ar
    31    27    28    1
    32    14    15   ar
    33    15    10   ar
    34    20    16   ar
    35     8     3    1
    36    27    22   ar
    37    33    29   ar
@<TRIPOS>MOLECULE
*****
 33 37 0 0 0
SMALL
GASTEIGER

@<TRIPOS>ATOM
      1 C          63.4673   88.2566   13.0881 C.2     1  UNL1        0.2506
      2 O          63.6368   89.1311   11.8812 O.2     1  UNL1       -0.2699
      3 N          63.4252   88.8679   14.4572 N.am    1  UNL1       -0.2723
      4 C          63.2557   87.9935   15.6641 C.3     1  UNL1        0.1257
      5 C          63.2135   88.6048   17.0333 C.3     1  UNL1        0.1637
      6 O          63.3408   90.0905   17.1955 O.3     1  UNL1       -0.3502
      7 C          63.5103   90.9650   15.9886 C.3     1  UNL1        0.1622
      8 C          63.5525   90.3537   14.6195 C.3     1  UNL1        0.1097
      9 C          64.7928   83.4428   14.5269 C.3     1  UNL1        0.0310
     10 C          64.0028   84.3639   13.6452 C.ar    1  UNL1       -0.0216
     11 C          63.0854   83.7994   12.6014 C.ar    1  UNL1       -0.0026
     12 C          62.2954   84.7205   11.7197 C.ar    1  UNL1        0.0207
     13 C          62.4227   86.2063   11.8820 C.ar    1  UNL1        0.1072
     14 C          63.3400   86.7708   12.9258 C.ar    1  UNL1        0.0726
     15 C          64.1300   85.8497   13.8075 C.ar    1  UNL1        0.0018
     16 N          61.6326   87.1274   11.0003 N.ar    1  UNL1       -0.1477
     17 N          60.4294   87.9237   11.4104 N.ar    1  UNL1       -0.1447
     18 C          59.9602   88.7025   10.2173 C.ar    1  UNL1        0.1446
     19 C          60.8735   88.3874    9.0698 C.ar    1  UNL1        0.1446
     20 N          61.9070   87.4140    9.5538 N.ar    1  UNL1       -0.1447
     21 C          63.7220   91.2282   13.4126 C.3     1  UNL1        0.0510
     22 C          65.0730   91.7843   13.0731 C.ar    1  UNL1        0.0086
     23 C          65.2149   92.7867   11.9664 C.ar    1  UNL1        0.0189
     24 C          66.5660   93.3430   11.6269 C.ar    1  UNL1        0.1027
     25 C          67.7752   92.8967   12.3942 C.ar    1  UNL1        0.0232
     26 C          67.6332   91.8942   13.5010 C.ar    1  UNL1        0.0309
     27 C          66.2822   91.3381   13.8405 C.ar    1  UNL1        0.1363
     28 F          66.1403   90.3357   14.9472 F       1  UNL1       -0.2045
     29 N          66.7079   94.3454   10.5201 N.ar    1  UNL1       -0.1478
     30 N          67.8347   94.4146    9.5324 N.ar    1  UNL1       -0.1447
     31 C          67.5712   95.5666    8.6086 C.ar    1  UNL1        0.1446
     32 C          66.2814   96.2093    9.0253 C.ar    1  UNL1        0.1446
     33 N          65.7479   95.4545   10.2066 N.ar    1  UNL1       -0.1447
@<TRIPOS>BOND
     1     9    10    1
     2    10    11   ar
     3    11    12   ar
     4    12    13   ar
     5    13    16    1
     6    16    17   ar
     7    17    18   ar
     8    18    19   ar
     9    19    20   ar
    10    13    14   ar
    11    14     1    1
    12     1     2    2
    13     1     3   am
    14     3     4    1
    15     4     5    1
    16     5     6    1
    17     6     7    1
    18     7     8    1
    19     8    21    1
    20    21    22    1
    21    22    23   ar
    22    23    24   ar
    23    24    29    1
    24    29    30   ar
    25    30    31   ar
    26    31    32   ar
    27    32    33   ar
    28    24    25   ar
    29    25    26   ar
    30    26    27   ar
    31    27    28    1
    32    14    15   ar
    33    15    10   ar
    34    20    16   ar
    35     8     3    1
    36    27    22   ar
    37    33    29   ar
@<TRIPOS>MOLECULE
*****
 33 37 0 0 0
SMALL
GASTEIGER

@<TRIPOS>ATOM
      1 C          63.2748   87.6359   12.8785 C.2     1  UNL1        0.2506
      2 O          63.2559   88.3950   11.5849 O.2     1  UNL1       -0.2699
      3 N          63.2885   88.3767   14.1827 N.am    1  UNL1       -0.2723
      4 C          63.3074   87.6177   15.4763 C.3     1  UNL1        0.1257
      5 C          63.3211   88.3586   16.7805 C.3     1  UNL1        0.1637
      6 O          63.3158   89.8585   16.7911 O.3     1  UNL1       -0.3502
      7 C          63.2969   90.6176   15.4975 C.3     1  UNL1        0.1622
      8 C          63.2832   89.8767   14.1933 C.3     1  UNL1        0.1097
      9 C          64.8817   83.1271   14.9005 C.3     1  UNL1        0.0310
     10 C          64.0835   83.8815   13.8789 C.ar    1  UNL1       -0.0216
     11 C          63.2905   83.1360   12.8468 C.ar    1  UNL1       -0.0026
     12 C          62.4922   83.8905   11.8252 C.ar    1  UNL1        0.0207
     13 C          62.4870   85.3904   11.8358 C.ar    1  UNL1        0.1072
     14 C          63.2800   86.1359   12.8679 C.ar    1  UNL1        0.0726
     15 C          64.0782   85.3814   13.8895 C.ar    1  UNL1        0.0018
     16 N          61.6888   86.1448   10.8142 N.ar    1  UNL1       -0.1477
     17 N          60.5470   87.0751   11.0987 N.ar    1  UNL1       -0.1447
     18 C          60.0447   87.6067    9.7891 C.ar    1  UNL1        0.1446
     19 C          60.8760   87.0050    8.6951 C.ar    1  UNL1        0.1446
     20 N          61.8921   86.1015    9.3287 N.ar    1  UNL1       -0.1447
     21 C          63.2643   90.6358   12.8997 C.3     1  UNL1        0.0510
     22 C          64.4405   91.4805   12.5084 C.ar    1  UNL1        0.0086
     23 C          65.4990   91.8068   13.5199 C.ar    1  UNL1        0.0189
     24 C          66.6753   92.6515   13.1287 C.ar    1  UNL1        0.1027
     25 C          66.7930   93.1698   11.7260 C.ar    1  UNL1        0.0232
     26 C          65.7345   92.8434   10.7145 C.ar    1  UNL1        0.0309
     27 C          64.5583   91.9987   11.1057 C.ar    1  UNL1        0.1363
     28 F          63.4998   91.6724   10.0943 F       1  UNL1       -0.2045
     29 N          67.7337   92.9778   14.1401 N.ar    1  UNL1       -0.1478
     30 N          67.5734   93.8878   15.3218 N.ar    1  UNL1       -0.1447
     31 C          68.8790   93.9239   16.0595 C.ar    1  UNL1        0.1446
     32 C          69.8462   93.0362   15.3338 C.ar    1  UNL1        0.1446
     33 N          69.1384   92.4516   14.1476 N.ar    1  UNL1       -0.1447
@<TRIPOS>BOND
     1     9    10    1
     2    10    11   ar
     3    11    12   ar
     4    12    13   ar
     5    13    16    1
     6    16    17   ar
     7    17    18   ar
     8    18    19   ar
     9    19    20   ar
    10    13    14   ar
    11    14     1    1
    12     1     2    2
    13     1     3   am
    14     3     4    1
    15     4     5    1
    16     5     6    1
    17     6     7    1
    18     7     8    1
    19     8    21    1
    20    21    22    1
    21    22    23   ar
    22    23    24   ar
    23    24    29    1
    24    29    30   ar
    25    30    31   ar
    26    31    32   ar
    27    32    33   ar
    28    24    25   ar
    29    25    26   ar
    30    26    27   ar
    31    27    28    1
    32    14    15   ar
    33    15    10   ar
    34    20    16   ar
    35     8     3    1
    36    27    22   ar
    37    33    29   ar
@<TRIPOS>MOLECULE
*****
 33 37 0 0 0
SMALL
GASTEIGER

@<TRIPOS>ATOM
      1 C          63.3968   87.7437   13.3155 C.2     1  UNL1        0.2506
      2 O          63.5227   88.8442   12.3041 O.2     1  UNL1       -0.2699
      3 N          63.3340   88.0724   14.7777 N.am    1  UNL1       -0.2723
      4 C          63.2081   86.9718   15.7891 C.3     1  UNL1        0.1257
      5 C          63.1454   87.3006   17.2513 C.3     1  UNL1        0.1637
      6 O          63.2085   88.7299   17.7021 O.3     1  UNL1       -0.3502
      7 C          63.3345   89.8304   16.6906 C.3     1  UNL1        0.1622
      8 C          63.3972   89.5017   15.2285 C.3     1  UNL1        0.1097
      9 C          64.8010   82.7750   13.8988 C.3     1  UNL1        0.0310
     10 C          64.0358   83.8300   13.1564 C.ar    1  UNL1       -0.0216
     11 C          63.2074   83.4559   11.9632 C.ar    1  UNL1       -0.0026
     12 C          62.4421   84.5109   11.2208 C.ar    1  UNL1        0.0207
     13 C          62.5052   85.9402   11.6715 C.ar    1  UNL1        0.1072
     14 C          63.3336   86.3144   12.8647 C.ar    1  UNL1        0.0726
     15 C          64.0989   85.2593   13.6071 C.ar    1  UNL1        0.0018
     16 N          61.7399   86.9953   10.9291 N.ar    1  UNL1       -0.1477
     17 N          62.1482   87.6342    9.6349 N.ar    1  UNL1       -0.1447
     18 C          61.0926   88.6305    9.2565 C.ar    1  UNL1        0.1446
     19 C          60.0319   88.6072   10.3168 C.ar    1  UNL1        0.1446
     20 N          60.4320   87.5966   11.3506 N.ar    1  UNL1       -0.1447
     21 C          63.5231   90.6022   14.2171 C.3     1  UNL1        0.0510
     22 C          64.8061   91.3705   14.1005 C.ar    1  UNL1        0.0086
     23 C          65.3976   91.6418   12.7491 C.ar    1  UNL1        0.0189
     24 C          66.6807   92.4102   12.6324 C.ar    1  UNL1        0.1027
     25 C          67.3721   92.9072   13.8673 C.ar    1  UNL1        0.0232
     26 C          66.7805   92.6359   15.2188 C.ar    1  UNL1        0.0309
     27 C          65.4975   91.8676   15.3354 C.ar    1  UNL1        0.1363
     28 F          64.9060   91.5963   16.6868 F       1  UNL1       -0.2045
     29 N          67.2722   92.6815   11.2810 N.ar    1  UNL1       -0.1478
     30 N          68.5417   92.0935   10.7401 N.ar    1  UNL1       -0.1447
     31 C          68.7523   92.6370    9.3580 C.ar    1  UNL1        0.1446
     32 C          67.6128   93.5610    9.0447 C.ar    1  UNL1        0.1446
     33 N          66.6982   93.5885   10.2332 N.ar    1  UNL1       -0.1447
@<TRIPOS>BOND
     1     9    10    1
     2    10    11   ar
     3    11    12   ar
     4    12    13   ar
     5    13    16    1
     6    16    17   ar
     7    17    18   ar
     8    18    19   ar
     9    19    20   ar
    10    13    14   ar
    11    14     1    1
    12     1     2    2
    13     1     3   am
    14     3     4    1
    15     4     5    1
    16     5     6    1
    17     6     7    1
    18     7     8    1
    19     8    21    1
    20    21    22    1
    21    22    23   ar
    22    23    24   ar
    23    24    29    1
    24    29    30   ar
    25    30    31   ar
    26    31    32   ar
    27    32    33   ar
    28    24    25   ar
    29    25    26   ar
    30    26    27   ar
    31    27    28    1
    32    14    15   ar
    33    15    10   ar
    34    20    16   ar
    35     8     3    1
    36    27    22   ar
    37    33    29   ar
