@<TRIPOS>MOLECULE
*****
 36 40 0 0 0
SMALL
GASTEIGER

@<TRIPOS>ATOM
      1 C          59.7191   90.9042    5.3766 C.ar    1  UNL1       -0.0025
      2 C          59.0167   91.9258    4.5323 C.ar    1  UNL1       -0.0014
      3 C          59.7409   92.5870    3.3973 C.ar    1  UNL1        0.0142
      4 C          61.1677   92.2267    3.1066 C.ar    1  UNL1        0.0478
      5 C          61.8701   91.2051    3.9509 C.ar    1  UNL1        0.0142
      6 C          61.1459   90.5439    5.0859 C.ar    1  UNL1       -0.0014
      7 N          61.8919   92.8879    1.9716 N.pl3   1  UNL1       -0.3075
      8 C          63.3581   93.1824    2.0876 C.3     1  UNL1        0.0911
      9 C          64.0824   93.8436    0.9526 C.3     1  UNL1        0.0258
     10 C          63.3404   94.2104   -0.2984 C.3     1  UNL1        0.0257
     11 C          61.8741   93.9160   -0.4144 C.3     1  UNL1        0.0258
     12 C          61.1499   93.2547    0.7206 C.3     1  UNL1        0.0911
     13 C          64.0646   94.8716   -1.4334 C.ar    1  UNL1       -0.0223
     14 C          63.8633   94.3837   -2.8374 C.ar    1  UNL1       -0.0034
     15 C          64.5875   95.0449   -3.9724 C.ar    1  UNL1        0.0111
     16 C          65.5131   96.1942   -3.7034 C.ar    1  UNL1        0.0577
     17 CL         66.2373   96.8554   -4.8384 Cl      1  UNL1       -0.0822
     18 C          65.7144   96.6822   -2.2994 C.ar    1  UNL1        0.0111
     19 C          64.9902   96.0209   -1.1644 C.ar    1  UNL1       -0.0034
     20 C          58.9949   90.2430    6.5116 C.3     1  UNL1        0.1166
     21 C          59.4875   88.2632    8.1203 C.2     1  UNL1        0.2635
     22 O          58.4328   87.4448    7.4360 O.2     1  UNL1       -0.2685
     23 N          59.7684   89.6622    7.6581 N.am    1  UNL1       -0.2957
     24 H          60.4606   90.1993    8.1072 H       1  UNL1        0.1501
     25 C          60.1712   88.1151   10.7001 C.ar    1  UNL1        0.0811
     26 N          61.1149   87.2671   11.5003 N.ar    1  UNL1       -0.2306
     27 C          61.7880   86.3103   10.5614 C.ar    1  UNL1        0.1483
     28 C          62.8132   85.2385   10.7851 C.ar    1  UNL1        0.0488
     29 C          63.3107   84.4234    9.6284 C.ar    1  UNL1        0.0622
     30 CL         64.3360   83.3515    9.8521 Cl      1  UNL1       -0.0821
     31 C          62.7830   84.6801    8.2480 C.ar    1  UNL1        0.0305
     32 C          61.7578   85.7519    8.0243 C.ar    1  UNL1        0.0824
     33 N          61.2603   86.5670    9.1810 N.ar    1  UNL1       -0.2853
     34 C          60.2610   87.6824    9.2667 C.ar    1  UNL1        0.1326
     35 C          59.7685   90.6268   11.2286 C.3     1  UNL1        0.0067
     36 C          59.2920   89.2045   11.2388 C.3     1  UNL1        0.0475
@<TRIPOS>BOND
     1    35    36    1
     2    36    25    1
     3    25    26   ar
     4    26    27   ar
     5    27    28   ar
     6    28    29   ar
     7    29    30    1
     8    29    31   ar
     9    31    32   ar
    10    32    33   ar
    11    33    34   ar
    12    34    21    1
    13    21    22    2
    14    21    23   am
    15    23    20    1
    16    20     1    1
    17     1     2   ar
    18     2     3   ar
    19     3     4   ar
    20     4     7    1
    21     7     8    1
    22     8     9    1
    23     9    10    1
    24    10    13    1
    25    13    14   ar
    26    14    15   ar
    27    15    16   ar
    28    16    17    1
    29    16    18   ar
    30    18    19   ar
    31    10    11    1
    32    11    12    1
    33     4     5   ar
    34     5     6   ar
    35    34    25   ar
    36     6     1   ar
    37    33    27   ar
    38    12     7    1
    39    19    13   ar
    40    23    24    1
@<TRIPOS>MOLECULE
*****
 36 40 0 0 0
SMALL
GASTEIGER

@<TRIPOS>ATOM
      1 C          60.1968   91.4612    4.4609 C.ar    1  UNL1       -0.0025
      2 C          59.4273   92.3114    3.4940 C.ar    1  UNL1       -0.0014
      3 C          60.1166   92.8985    2.2981 C.ar    1  UNL1        0.0142
      4 C          61.5754   92.6354    2.0691 C.ar    1  UNL1        0.0478
      5 C          62.3449   91.7852    3.0360 C.ar    1  UNL1        0.0142
      6 C          61.6557   91.1981    4.2319 C.ar    1  UNL1       -0.0014
      7 N          62.2647   93.2225    0.8732 N.pl3   1  UNL1       -0.3075
      8 C          63.5709   93.9412    1.0382 C.3     1  UNL1        0.0911
      9 C          64.2602   94.5283   -0.1577 C.3     1  UNL1        0.0258
     10 C          63.6433   94.3967   -1.5186 C.3     1  UNL1        0.0257
     11 C          62.3371   93.6780   -1.6836 C.3     1  UNL1        0.0258
     12 C          61.6478   93.0909   -0.4877 C.3     1  UNL1        0.0911
     13 C          64.3326   94.9838   -2.7145 C.ar    1  UNL1       -0.0223
     14 C          64.2555   94.2882   -4.0412 C.ar    1  UNL1       -0.0034
     15 C          64.9448   94.8753   -5.2371 C.ar    1  UNL1        0.0111
     16 C          65.7112   96.1581   -5.1063 C.ar    1  UNL1        0.0577
     17 CL         66.4005   96.7452   -6.3022 Cl      1  UNL1       -0.0822
     18 C          65.7883   96.8537   -3.7796 C.ar    1  UNL1        0.0111
     19 C          65.0990   96.2666   -2.5837 C.ar    1  UNL1       -0.0034
     20 C          59.5075   90.8741    5.6568 C.3     1  UNL1        0.1166
     21 C          59.6652   88.9792    7.4272 C.2     1  UNL1        0.2635
     22 O          58.2407   88.6005    7.1488 O.2     1  UNL1       -0.2685
     23 N          60.2985   90.1159    6.6813 N.am    1  UNL1       -0.2957
     24 H          61.2334   90.3645    6.8640 H       1  UNL1        0.1501
     25 C          60.6869   86.7390    8.4678 C.ar    1  UNL1        0.0811
     26 N          61.5287   86.4139    9.6660 N.ar    1  UNL1       -0.2306
     27 C          61.8183   87.6950   10.3904 C.ar    1  UNL1        0.1483
     28 C          62.5999   87.9889   11.6365 C.ar    1  UNL1        0.0488
     29 C          62.7187   89.3996   12.1321 C.ar    1  UNL1        0.0622
     30 CL         63.5003   89.6935   13.3782 Cl      1  UNL1       -0.0821
     31 C          62.0558   90.5165   11.3816 C.ar    1  UNL1        0.0305
     32 C          61.2742   90.2227   10.1356 C.ar    1  UNL1        0.0824
     33 N          61.1554   88.8119    9.6400 N.ar    1  UNL1       -0.2853
     34 C          60.4562   88.2211    8.4517 C.ar    1  UNL1        0.1326
     35 C          61.1181   84.8469    6.7403 C.3     1  UNL1        0.0067
     36 C          60.1670   85.7548    7.4622 C.3     1  UNL1        0.0475
@<TRIPOS>BOND
     1    35    36    1
     2    36    25    1
     3    25    26   ar
     4    26    27   ar
     5    27    28   ar
     6    28    29   ar
     7    29    30    1
     8    29    31   ar
     9    31    32   ar
    10    32    33   ar
    11    33    34   ar
    12    34    21    1
    13    21    22    2
    14    21    23   am
    15    23    20    1
    16    20     1    1
    17     1     2   ar
    18     2     3   ar
    19     3     4   ar
    20     4     7    1
    21     7     8    1
    22     8     9    1
    23     9    10    1
    24    10    13    1
    25    13    14   ar
    26    14    15   ar
    27    15    16   ar
    28    16    17    1
    29    16    18   ar
    30    18    19   ar
    31    10    11    1
    32    11    12    1
    33     4     5   ar
    34     5     6   ar
    35    34    25   ar
    36     6     1   ar
    37    33    27   ar
    38    12     7    1
    39    19    13   ar
    40    23    24    1
@<TRIPOS>MOLECULE
*****
 36 40 0 0 0
SMALL
GASTEIGER

@<TRIPOS>ATOM
      1 C          59.8192   87.7266    8.9998 C.ar    1  UNL1       -0.0025
      2 C          59.4098   87.2587    7.6348 C.ar    1  UNL1       -0.0014
      3 C          59.3997   88.2207    6.4839 C.ar    1  UNL1        0.0142
      4 C          59.7990   89.6507    6.6982 C.ar    1  UNL1        0.0478
      5 C          60.2083   90.1185    8.0633 C.ar    1  UNL1        0.0142
      6 C          60.2184   89.1565    9.2141 C.ar    1  UNL1       -0.0014
      7 N          59.7889   90.6127    5.5473 N.pl3   1  UNL1       -0.3075
      8 C          58.4991   91.2356    5.1019 C.3     1  UNL1        0.0911
      9 C          58.4890   92.1976    3.9510 C.3     1  UNL1        0.0258
     10 C          59.7687   92.5367    3.2457 C.3     1  UNL1        0.0257
     11 C          61.0584   91.9138    3.6912 C.3     1  UNL1        0.0258
     12 C          61.0685   90.9518    4.8420 C.3     1  UNL1        0.0911
     13 C          59.7586   93.4987    2.0948 C.ar    1  UNL1       -0.0223
     14 C          60.4018   94.8462    2.2380 C.ar    1  UNL1       -0.0034
     15 C          60.3917   95.8082    1.0871 C.ar    1  UNL1        0.0111
     16 C          59.7383   95.4227   -0.2069 C.ar    1  UNL1        0.0577
     17 CL         59.7282   96.3847   -1.3577 Cl      1  UNL1       -0.0822
     18 C          59.0951   94.0753   -0.3500 C.ar    1  UNL1        0.0111
     19 C          59.1052   93.1133    0.8008 C.ar    1  UNL1       -0.0034
     20 C          59.8293   86.7646   10.1507 C.3     1  UNL1        0.1166
     21 C          62.1438   86.6494   11.3252 C.2     1  UNL1        0.2635
     22 O          62.7285   85.9948   10.1087 O.2     1  UNL1       -0.2685
     23 N          60.6943   87.0343   11.3461 N.am    1  UNL1       -0.2957
     24 H          60.3105   87.4639   12.1445 H       1  UNL1        0.1501
     25 C          63.5441   85.8902   13.4718 C.ar    1  UNL1        0.0811
     26 N          64.3565   86.6004   14.5138 N.ar    1  UNL1       -0.2306
     27 C          64.3232   88.0682   14.2067 C.ar    1  UNL1        0.1483
     28 C          64.9437   89.2508   14.8895 C.ar    1  UNL1        0.0488
     29 C          64.7313   90.6305   14.3405 C.ar    1  UNL1        0.0622
     30 CL         65.3519   91.8132   15.0234 Cl      1  UNL1       -0.0821
     31 C          63.8984   90.8275   13.1087 C.ar    1  UNL1        0.0305
     32 C          63.2779   89.6449   12.4258 C.ar    1  UNL1        0.0824
     33 N          63.4903   88.2653   12.9748 N.ar    1  UNL1       -0.2853
     34 C          63.0088   86.9192   12.5207 C.ar    1  UNL1        0.1326
     35 C          64.2040   83.5518   12.5519 C.3     1  UNL1        0.0067
     36 C          63.3085   84.4108   13.3945 C.3     1  UNL1        0.0475
@<TRIPOS>BOND
     1    35    36    1
     2    36    25    1
     3    25    26   ar
     4    26    27   ar
     5    27    28   ar
     6    28    29   ar
     7    29    30    1
     8    29    31   ar
     9    31    32   ar
    10    32    33   ar
    11    33    34   ar
    12    34    21    1
    13    21    22    2
    14    21    23   am
    15    23    20    1
    16    20     1    1
    17     1     2   ar
    18     2     3   ar
    19     3     4   ar
    20     4     7    1
    21     7     8    1
    22     8     9    1
    23     9    10    1
    24    10    13    1
    25    13    14   ar
    26    14    15   ar
    27    15    16   ar
    28    16    17    1
    29    16    18   ar
    30    18    19   ar
    31    10    11    1
    32    11    12    1
    33     4     5   ar
    34     5     6   ar
    35    34    25   ar
    36     6     1   ar
    37    33    27   ar
    38    12     7    1
    39    19    13   ar
    40    23    24    1
@<TRIPOS>MOLECULE
*****
 36 40 0 0 0
SMALL
GASTEIGER

@<TRIPOS>ATOM
      1 C          58.8274   91.2304    5.0534 C.ar    1  UNL1       -0.0025
      2 C          57.9047   90.4471    5.9394 C.ar    1  UNL1       -0.0014
      3 C          58.4672   89.5049    6.9620 C.ar    1  UNL1        0.0142
      4 C          59.9525   89.3459    7.0987 C.ar    1  UNL1        0.0478
      5 C          60.8752   90.1291    6.2127 C.ar    1  UNL1        0.0142
      6 C          60.3127   91.0714    5.1901 C.ar    1  UNL1       -0.0014
      7 N          60.5149   88.4036    8.1213 N.pl3   1  UNL1       -0.3075
      8 C          60.3432   86.9232    7.9517 C.3     1  UNL1        0.0911
      9 C          60.9057   85.9809    8.9743 C.3     1  UNL1        0.0258
     10 C          61.6399   86.5191   10.1665 C.3     1  UNL1        0.0257
     11 C          61.8116   87.9995   10.3361 C.3     1  UNL1        0.0258
     12 C          61.2492   88.9418    9.3135 C.3     1  UNL1        0.0911
     13 C          62.2024   85.5768   11.1891 C.ar    1  UNL1       -0.0223
     14 C          62.2080   84.1002   10.9256 C.ar    1  UNL1       -0.0034
     15 C          62.7704   83.1579   11.9482 C.ar    1  UNL1        0.0111
     16 C          63.3273   83.6923   13.2345 C.ar    1  UNL1        0.0577
     17 CL         63.8898   82.7500   14.2571 Cl      1  UNL1       -0.0822
     18 C          63.3217   85.1689   13.4980 C.ar    1  UNL1        0.0111
     19 C          62.7592   86.1112   12.4754 C.ar    1  UNL1       -0.0034
     20 C          58.2650   92.1727    4.0308 C.3     1  UNL1        0.1166
     21 C          59.7694   93.3039    2.2401 C.2     1  UNL1        0.2635
     22 O          60.1330   94.3769    3.2234 O.2     1  UNL1       -0.2685
     23 N          58.8355   92.2019    2.6438 N.am    1  UNL1       -0.2957
     24 H          58.5968   91.4978    1.9985 H       1  UNL1        0.1501
     25 C          61.7968   93.2944    0.4980 C.ar    1  UNL1        0.0811
     26 N          61.9109   93.3436   -0.9968 N.ar    1  UNL1       -0.2306
     27 C          60.5246   93.4128   -1.5656 C.ar    1  UNL1        0.1483
     28 C          60.0210   93.4809   -2.9768 C.ar    1  UNL1        0.0488
     29 C          58.5464   93.5426   -3.2447 C.ar    1  UNL1        0.0622
     30 CL         58.0427   93.6107   -4.6560 Cl      1  UNL1       -0.0821
     31 C          57.5755   93.5362   -2.1014 C.ar    1  UNL1        0.0305
     32 C          58.0791   93.4681   -0.6901 C.ar    1  UNL1        0.0824
     33 N          59.5537   93.4064   -0.4222 N.ar    1  UNL1       -0.2853
     34 C          60.3399   93.3332    0.8531 C.ar    1  UNL1        0.1326
     35 C          63.0863   92.0244    2.3620 C.3     1  UNL1        0.0067
     36 C          62.9389   93.2194    1.4675 C.3     1  UNL1        0.0475
@<TRIPOS>BOND
     1    35    36    1
     2    36    25    1
     3    25    26   ar
     4    26    27   ar
     5    27    28   ar
     6    28    29   ar
     7    29    30    1
     8    29    31   ar
     9    31    32   ar
    10    32    33   ar
    11    33    34   ar
    12    34    21    1
    13    21    22    2
    14    21    23   am
    15    23    20    1
    16    20     1    1
    17     1     2   ar
    18     2     3   ar
    19     3     4   ar
    20     4     7    1
    21     7     8    1
    22     8     9    1
    23     9    10    1
    24    10    13    1
    25    13    14   ar
    26    14    15   ar
    27    15    16   ar
    28    16    17    1
    29    16    18   ar
    30    18    19   ar
    31    10    11    1
    32    11    12    1
    33     4     5   ar
    34     5     6   ar
    35    34    25   ar
    36     6     1   ar
    37    33    27   ar
    38    12     7    1
    39    19    13   ar
    40    23    24    1
