@<TRIPOS>MOLECULE
*****
 23 25 0 0 0
SMALL
GASTEIGER

@<TRIPOS>ATOM
      1 N          67.6425   93.4753   15.3443 N.pl3   1  UNL1       -0.3375
      2 C          66.7043   92.9173   14.3155 C.ar    1  UNL1        0.1567
      3 N          66.5739   93.3837   12.8958 N.ar    1  UNL1       -0.2245
      4 C          65.5207   92.5495   12.2287 C.ar    1  UNL1        0.0892
      5 C          64.9685   92.5573   10.8341 C.ar    1  UNL1        0.0198
      6 C          63.8957   91.5831   10.4469 C.ar    1  UNL1        0.0061
      7 C          63.3752   90.6011   11.4543 C.ar    1  UNL1        0.0540
      8 C          63.9274   90.5934   12.8488 C.ar    1  UNL1        0.0126
      9 C          65.0002   91.5676   13.2361 C.ar    1  UNL1        0.0498
     10 S          65.7317   91.7949   14.5258 S.2     1  UNL1       -0.0520
     11 H          68.2463   94.2165   15.1093 H       1  UNL1        0.1442
     12 H          67.6545   93.1002   16.2545 H       1  UNL1        0.1442
     13 C          62.3023   89.6269   11.0670 C.2     1  UNL1        0.2461
     14 O          61.1294   90.0873   10.2532 O.2     1  UNL1       -0.2701
     15 N          62.4024   88.1923   11.4935 N.am    1  UNL1       -0.2969
     16 H          63.1723   87.8901   12.0276 H       1  UNL1        0.1501
     17 C          61.3296   87.2181   11.1062 C.3     1  UNL1        0.1166
     18 C          61.3762   86.5444    9.7668 C.ar    1  UNL1       -0.0026
     19 C          62.6146   85.8156    9.3365 C.ar    1  UNL1       -0.0026
     20 C          62.6612   85.1420    7.9971 C.ar    1  UNL1       -0.0003
     21 C          61.4693   85.1971    7.0879 C.ar    1  UNL1       -0.0000
     22 C          60.2309   85.9259    7.5182 C.ar    1  UNL1       -0.0003
     23 C          60.1843   86.5996    8.8577 C.ar    1  UNL1       -0.0026
@<TRIPOS>BOND
     1     1     2    1
     2     2     3   ar
     3     3     4   ar
     4     4     5   ar
     5     5     6   ar
     6     6     7   ar
     7     7    13    1
     8    13    14    2
     9    13    15   am
    10    15    17    1
    11    17    18    1
    12    18    19   ar
    13    19    20   ar
    14    20    21   ar
    15    21    22   ar
    16    22    23   ar
    17     7     8   ar
    18     8     9   ar
    19     9    10   ar
    20    10     2   ar
    21     9     4   ar
    22    23    18   ar
    23     1    11    1
    24     1    12    1
    25    15    16    1
@<TRIPOS>MOLECULE
*****
 23 25 0 0 0
SMALL
GASTEIGER

@<TRIPOS>ATOM
      1 N          67.0126   95.6384   10.8023 N.pl3   1  UNL1       -0.3375
      2 C          66.3310   94.4035   11.3125 C.ar    1  UNL1        0.1567
      3 N          66.4445   93.8427   12.6990 N.ar    1  UNL1       -0.2245
      4 C          65.5998   92.6051   12.7692 C.ar    1  UNL1        0.0892
      5 C          65.3273   91.6377   13.8826 C.ar    1  UNL1        0.0198
      6 C          64.4192   90.4662   13.6528 C.ar    1  UNL1        0.0061
      7 C          63.7836   90.2621   12.3096 C.ar    1  UNL1        0.0540
      8 C          64.0561   91.2295   11.1961 C.ar    1  UNL1        0.0126
      9 C          64.9642   92.4010   11.4259 C.ar    1  UNL1        0.0498
     10 S          65.4161   93.5125   10.5257 S.2     1  UNL1       -0.0520
     11 H          67.5976   96.1597   11.3984 H       1  UNL1        0.1442
     12 H          66.8750   95.9277    9.8713 H       1  UNL1        0.1442
     13 C          62.8754   89.0905   12.0798 C.2     1  UNL1        0.2461
     14 O          63.1985   87.7598   12.6920 O.2     1  UNL1       -0.2701
     15 N          61.6443   89.2497   11.2379 N.am    1  UNL1       -0.2969
     16 H          61.4322   90.1232   10.8361 H       1  UNL1        0.1501
     17 C          60.7361   88.0782   11.0081 C.3     1  UNL1        0.1166
     18 C          60.9334   87.2003    9.8080 C.ar    1  UNL1       -0.0026
     19 C          62.2343   86.4799    9.6114 C.ar    1  UNL1       -0.0026
     20 C          62.4316   85.6021    8.4112 C.ar    1  UNL1       -0.0003
     21 C          61.3280   85.4447    7.4075 C.ar    1  UNL1       -0.0000
     22 C          60.0271   86.1651    7.6041 C.ar    1  UNL1       -0.0003
     23 C          59.8298   87.0430    8.8044 C.ar    1  UNL1       -0.0026
@<TRIPOS>BOND
     1     1     2    1
     2     2     3   ar
     3     3     4   ar
     4     4     5   ar
     5     5     6   ar
     6     6     7   ar
     7     7    13    1
     8    13    14    2
     9    13    15   am
    10    15    17    1
    11    17    18    1
    12    18    19   ar
    13    19    20   ar
    14    20    21   ar
    15    21    22   ar
    16    22    23   ar
    17     7     8   ar
    18     8     9   ar
    19     9    10   ar
    20    10     2   ar
    21     9     4   ar
    22    23    18   ar
    23     1    11    1
    24     1    12    1
    25    15    16    1
@<TRIPOS>MOLECULE
*****
 23 25 0 0 0
SMALL
GASTEIGER

@<TRIPOS>ATOM
      1 N          68.4050   93.8251   15.7381 N.pl3   1  UNL1       -0.3375
      2 C          67.3121   93.0341   15.0824 C.ar    1  UNL1        0.1567
      3 N          66.6233   91.8340   15.6614 N.ar    1  UNL1       -0.2245
      4 C          65.6016   91.3625   14.6695 C.ar    1  UNL1        0.0892
      5 C          64.6264   90.2231   14.6977 C.ar    1  UNL1        0.0198
      6 C          63.7087   89.9925   13.5339 C.ar    1  UNL1        0.0061
      7 C          63.7662   90.9011   12.3418 C.ar    1  UNL1        0.0540
      8 C          64.7413   92.0405   12.3136 C.ar    1  UNL1        0.0126
      9 C          65.6590   92.2712   13.4774 C.ar    1  UNL1        0.0498
     10 S          66.7162   93.3043   13.7326 S.2     1  UNL1       -0.0520
     11 H          68.7310   93.5682   16.6308 H       1  UNL1        0.1442
     12 H          68.7963   94.6012   15.2757 H       1  UNL1        0.1442
     13 C          62.8484   90.6704   11.1779 C.2     1  UNL1        0.2461
     14 O          63.0649   91.4138    9.8932 O.2     1  UNL1       -0.2701
     15 N          61.7142   89.6963   11.2988 N.am    1  UNL1       -0.2969
     16 H          61.5721   89.2084   12.1420 H       1  UNL1        0.1501
     17 C          60.7964   89.4656   10.1350 C.3     1  UNL1        0.1166
     18 C          60.8811   88.1872    9.3549 C.ar    1  UNL1       -0.0026
     19 C          59.7379   87.7650    8.4805 C.ar    1  UNL1       -0.0026
     20 C          59.8226   86.4866    7.7004 C.ar    1  UNL1       -0.0003
     21 C          61.0507   85.6304    7.7948 C.ar    1  UNL1       -0.0000
     22 C          62.1940   86.0527    8.6692 C.ar    1  UNL1       -0.0003
     23 C          62.1092   87.3311    9.4493 C.ar    1  UNL1       -0.0026
@<TRIPOS>BOND
     1     1     2    1
     2     2     3   ar
     3     3     4   ar
     4     4     5   ar
     5     5     6   ar
     6     6     7   ar
     7     7    13    1
     8    13    14    2
     9    13    15   am
    10    15    17    1
    11    17    18    1
    12    18    19   ar
    13    19    20   ar
    14    20    21   ar
    15    21    22   ar
    16    22    23   ar
    17     7     8   ar
    18     8     9   ar
    19     9    10   ar
    20    10     2   ar
    21     9     4   ar
    22    23    18   ar
    23     1    11    1
    24     1    12    1
    25    15    16    1
@<TRIPOS>MOLECULE
*****
 23 25 0 0 0
SMALL
GASTEIGER

@<TRIPOS>ATOM
      1 N          59.7742   85.7054    7.4034 N.pl3   1  UNL1       -0.3375
      2 C          60.3456   86.6670    8.4028 C.ar    1  UNL1        0.1567
      3 N          60.1933   88.1591    8.3776 N.ar    1  UNL1       -0.2245
      4 C          60.9231   88.7197    9.5620 C.ar    1  UNL1        0.0892
      5 C          61.1163   90.1253   10.0488 C.ar    1  UNL1        0.0198
      6 C          61.9128   90.3853   11.2930 C.ar    1  UNL1        0.0061
      7 C          62.5162   89.2397   12.0503 C.ar    1  UNL1        0.0540
      8 C          62.3231   87.8341   11.5635 C.ar    1  UNL1        0.0126
      9 C          61.5266   87.5741   10.3194 C.ar    1  UNL1        0.0498
     10 S          61.1696   86.3055    9.6029 S.2     1  UNL1       -0.0520
     11 H          59.2437   86.0410    6.6450 H       1  UNL1        0.1442
     12 H          59.9296   84.7387    7.5060 H       1  UNL1        0.1442
     13 C          63.3128   89.4997   13.2945 C.2     1  UNL1        0.2461
     14 O          64.1052   88.3920   13.9229 O.2     1  UNL1       -0.2701
     15 N          63.3169   90.8675   13.9102 N.am    1  UNL1       -0.2969
     16 H          62.7968   91.5946   13.4977 H       1  UNL1        0.1501
     17 C          64.1135   91.1276   15.1544 C.3     1  UNL1        0.1166
     18 C          65.5148   91.6525   15.0517 C.ar    1  UNL1       -0.0026
     19 C          66.3196   91.4043   13.8104 C.ar    1  UNL1       -0.0026
     20 C          67.7210   91.9293   13.7078 C.ar    1  UNL1       -0.0003
     21 C          68.3176   92.7024   14.8464 C.ar    1  UNL1       -0.0000
     22 C          67.5128   92.9506   16.0876 C.ar    1  UNL1       -0.0003
     23 C          66.1114   92.4256   16.1902 C.ar    1  UNL1       -0.0026
@<TRIPOS>BOND
     1     1     2    1
     2     2     3   ar
     3     3     4   ar
     4     4     5   ar
     5     5     6   ar
     6     6     7   ar
     7     7    13    1
     8    13    14    2
     9    13    15   am
    10    15    17    1
    11    17    18    1
    12    18    19   ar
    13    19    20   ar
    14    20    21   ar
    15    21    22   ar
    16    22    23   ar
    17     7     8   ar
    18     8     9   ar
    19     9    10   ar
    20    10     2   ar
    21     9     4   ar
    22    23    18   ar
    23     1    11    1
    24     1    12    1
    25    15    16    1
@<TRIPOS>MOLECULE
*****
 23 25 0 0 0
SMALL
GASTEIGER

@<TRIPOS>ATOM
      1 N          58.7001   87.0329    7.5318 N.pl3   1  UNL1       -0.3375
      2 C          59.7110   87.5447    8.5147 C.ar    1  UNL1        0.1567
      3 N          60.4298   86.7271    9.5467 N.ar    1  UNL1       -0.2245
      4 C          61.3437   87.6410   10.3080 C.ar    1  UNL1        0.0892
      5 C          62.2961   87.3929   11.4400 C.ar    1  UNL1        0.0198
      6 C          63.0946   88.5273   12.0105 C.ar    1  UNL1        0.0061
      7 C          62.9406   89.9098   11.4491 C.ar    1  UNL1        0.0540
      8 C          61.9882   90.1578   10.3172 C.ar    1  UNL1        0.0126
      9 C          61.1897   89.0234    9.7467 C.ar    1  UNL1        0.0498
     10 S          60.1807   88.9639    8.6384 S.2     1  UNL1       -0.0520
     11 H          58.4559   86.0792    7.5283 H       1  UNL1        0.1442
     12 H          58.2809   87.6508    6.8901 H       1  UNL1        0.1442
     13 C          63.7391   91.0442   12.0197 C.2     1  UNL1        0.2461
     14 O          63.6453   91.3666   13.4816 O.2     1  UNL1       -0.2701
     15 N          64.6314   91.8561   11.1284 N.am    1  UNL1       -0.2969
     16 H          64.6930   91.6445   10.1689 H       1  UNL1        0.1501
     17 C          65.4300   92.9906   11.6990 C.3     1  UNL1        0.1166
     18 C          66.1340   93.9474   10.7831 C.ar    1  UNL1       -0.0026
     19 C          65.8518   95.4178   10.8740 C.ar    1  UNL1       -0.0026
     20 C          66.5558   96.3746    9.9582 C.ar    1  UNL1       -0.0003
     21 C          67.5421   95.8610    8.9514 C.ar    1  UNL1       -0.0000
     22 C          67.8243   94.3906    8.8605 C.ar    1  UNL1       -0.0003
     23 C          67.1202   93.4338    9.7764 C.ar    1  UNL1       -0.0026
@<TRIPOS>BOND
     1     1     2    1
     2     2     3   ar
     3     3     4   ar
     4     4     5   ar
     5     5     6   ar
     6     6     7   ar
     7     7    13    1
     8    13    14    2
     9    13    15   am
    10    15    17    1
    11    17    18    1
    12    18    19   ar
    13    19    20   ar
    14    20    21   ar
    15    21    22   ar
    16    22    23   ar
    17     7     8   ar
    18     8     9   ar
    19     9    10   ar
    20    10     2   ar
    21     9     4   ar
    22    23    18   ar
    23     1    11    1
    24     1    12    1
    25    15    16    1
@<TRIPOS>MOLECULE
*****
 23 25 0 0 0
SMALL
GASTEIGER

@<TRIPOS>ATOM
      1 N          63.6284   82.6870   14.9769 N.pl3   1  UNL1       -0.3375
      2 C          63.6194   84.1612   15.2541 C.ar    1  UNL1        0.1567
      3 N          62.9941   84.8311   16.4416 N.ar    1  UNL1       -0.2245
      4 C          63.2223   86.3082   16.3140 C.ar    1  UNL1        0.0892
      5 C          62.8313   87.4633   17.1873 C.ar    1  UNL1        0.0198
      6 C          63.2066   88.8614   16.7942 C.ar    1  UNL1        0.0061
      7 C          63.9729   89.1043   15.5278 C.ar    1  UNL1        0.0540
      8 C          64.3639   87.9491   14.6545 C.ar    1  UNL1        0.0126
      9 C          63.9886   86.5511   15.0476 C.ar    1  UNL1        0.0498
     10 S          64.2340   85.2241   14.3926 S.2     1  UNL1       -0.0520
     11 H          63.1958   82.0652   15.6057 H       1  UNL1        0.1442
     12 H          64.0669   82.3413   14.1660 H       1  UNL1        0.1442
     13 C          64.3482   90.5024   15.1347 C.2     1  UNL1        0.2461
     14 O          63.5005   91.6586   15.5758 O.2     1  UNL1       -0.2701
     15 N          65.5712   90.7443   14.3005 N.am    1  UNL1       -0.2969
     16 H          66.1275   89.9854   14.0110 H       1  UNL1        0.1501
     17 C          65.9465   92.1424   13.9074 C.3     1  UNL1        0.1166
     18 C          66.4495   92.4226   12.5224 C.ar    1  UNL1       -0.0026
     19 C          67.7761   91.8787   12.0819 C.ar    1  UNL1       -0.0026
     20 C          68.2791   92.1589   10.6968 C.ar    1  UNL1       -0.0003
     21 C          67.4554   92.9832    9.7522 C.ar    1  UNL1       -0.0000
     22 C          66.1288   93.5271   10.1927 C.ar    1  UNL1       -0.0003
     23 C          65.6258   93.2468   11.5778 C.ar    1  UNL1       -0.0026
@<TRIPOS>BOND
     1     1     2    1
     2     2     3   ar
     3     3     4   ar
     4     4     5   ar
     5     5     6   ar
     6     6     7   ar
     7     7    13    1
     8    13    14    2
     9    13    15   am
    10    15    17    1
    11    17    18    1
    12    18    19   ar
    13    19    20   ar
    14    20    21   ar
    15    21    22   ar
    16    22    23   ar
    17     7     8   ar
    18     8     9   ar
    19     9    10   ar
    20    10     2   ar
    21     9     4   ar
    22    23    18   ar
    23     1    11    1
    24     1    12    1
    25    15    16    1
@<TRIPOS>MOLECULE
*****
 23 25 0 0 0
SMALL
GASTEIGER

@<TRIPOS>ATOM
      1 N          63.2154   80.3003   14.1965 N.pl3   1  UNL1       -0.3375
      2 C          63.1084   81.5029   13.3064 C.ar    1  UNL1        0.1567
      3 N          63.3756   81.5342   11.8308 N.ar    1  UNL1       -0.2245
      4 C          63.1477   82.9360   11.3481 C.ar    1  UNL1        0.0892
      5 C          63.2591   83.5600    9.9886 C.ar    1  UNL1        0.0198
      6 C          62.9624   85.0190    9.8064 C.ar    1  UNL1        0.0061
      7 C          62.5544   85.8541   10.9838 C.ar    1  UNL1        0.0540
      8 C          62.4431   85.2301   12.3433 C.ar    1  UNL1        0.0126
      9 C          62.7397   83.7711   12.5254 C.ar    1  UNL1        0.0498
     10 S          62.7154   82.8854   13.7357 S.2     1  UNL1       -0.0520
     11 H          63.4824   79.4309   13.8194 H       1  UNL1        0.1442
     12 H          63.0186   80.3802   15.1578 H       1  UNL1        0.1442
     13 C          62.2578   87.3132   10.8016 C.2     1  UNL1        0.2461
     14 O          61.6228   87.7965    9.5315 O.2     1  UNL1       -0.2701
     15 N          62.5961   88.2888   11.8895 N.am    1  UNL1       -0.2969
     16 H          63.0129   87.9716   12.7231 H       1  UNL1        0.1501
     17 C          62.2994   89.7479   11.7073 C.3     1  UNL1        0.1166
     18 C          63.4091   90.7542   11.7840 C.ar    1  UNL1       -0.0026
     19 C          64.1382   90.9697   13.0771 C.ar    1  UNL1       -0.0026
     20 C          65.2479   91.9759   13.1537 C.ar    1  UNL1       -0.0003
     21 C          65.6287   92.7667   11.9373 C.ar    1  UNL1       -0.0000
     22 C          64.8996   92.5512   10.6442 C.ar    1  UNL1       -0.0003
     23 C          63.7898   91.5449   10.5676 C.ar    1  UNL1       -0.0026
@<TRIPOS>BOND
     1     1     2    1
     2     2     3   ar
     3     3     4   ar
     4     4     5   ar
     5     5     6   ar
     6     6     7   ar
     7     7    13    1
     8    13    14    2
     9    13    15   am
    10    15    17    1
    11    17    18    1
    12    18    19   ar
    13    19    20   ar
    14    20    21   ar
    15    21    22   ar
    16    22    23   ar
    17     7     8   ar
    18     8     9   ar
    19     9    10   ar
    20    10     2   ar
    21     9     4   ar
    22    23    18   ar
    23     1    11    1
    24     1    12    1
    25    15    16    1
@<TRIPOS>MOLECULE
*****
 23 25 0 0 0
SMALL
GASTEIGER

@<TRIPOS>ATOM
      1 N          58.6332   89.1333    6.5900 N.pl3   1  UNL1       -0.3375
      2 C          59.5107   88.6262    7.6958 C.ar    1  UNL1        0.1567
      3 N          60.3161   89.4694    8.6394 N.ar    1  UNL1       -0.2245
      4 C          61.0400   88.5512    9.5790 C.ar    1  UNL1        0.0892
      5 C          61.9789   88.8174   10.7181 C.ar    1  UNL1        0.0198
      6 C          62.5599   87.6729   11.4943 C.ar    1  UNL1        0.0061
      7 C          62.2019   86.2622   11.1314 C.ar    1  UNL1        0.0540
      8 C          61.2630   85.9959    9.9923 C.ar    1  UNL1        0.0126
      9 C          60.6821   87.1404    9.2161 C.ar    1  UNL1        0.0498
     10 S          59.7369   87.1868    8.0523 S.2     1  UNL1       -0.0520
     11 H          58.5488   90.1015    6.4333 H       1  UNL1        0.1442
     12 H          58.1418   88.4978    6.0208 H       1  UNL1        0.1442
     13 C          62.7828   85.1176   11.9077 C.2     1  UNL1        0.2461
     14 O          63.0908   83.8223   11.2168 O.2     1  UNL1       -0.2701
     15 N          63.0558   85.2684   13.3749 N.am    1  UNL1       -0.2969
     16 H          62.8537   86.1185   13.8284 H       1  UNL1        0.1501
     17 C          63.6368   84.1238   14.1512 C.3     1  UNL1        0.1166
     18 C          63.0781   82.7422   13.9815 C.ar    1  UNL1       -0.0026
     19 C          63.9429   81.6454   13.4345 C.ar    1  UNL1       -0.0026
     20 C          63.3842   80.2638   13.2648 C.ar    1  UNL1       -0.0003
     21 C          61.9606   79.9788   13.6421 C.ar    1  UNL1       -0.0000
     22 C          61.0958   81.0756   14.1891 C.ar    1  UNL1       -0.0003
     23 C          61.6546   82.4573   14.3588 C.ar    1  UNL1       -0.0026
@<TRIPOS>BOND
     1     1     2    1
     2     2     3   ar
     3     3     4   ar
     4     4     5   ar
     5     5     6   ar
     6     6     7   ar
     7     7    13    1
     8    13    14    2
     9    13    15   am
    10    15    17    1
    11    17    18    1
    12    18    19   ar
    13    19    20   ar
    14    20    21   ar
    15    21    22   ar
    16    22    23   ar
    17     7     8   ar
    18     8     9   ar
    19     9    10   ar
    20    10     2   ar
    21     9     4   ar
    22    23    18   ar
    23     1    11    1
    24     1    12    1
    25    15    16    1
@<TRIPOS>MOLECULE
*****
 23 25 0 0 0
SMALL
GASTEIGER

@<TRIPOS>ATOM
      1 N          58.8996   87.0841    7.6480 N.pl3   1  UNL1       -0.3375
      2 C          59.8878   87.5874    8.6580 C.ar    1  UNL1        0.1567
      3 N          60.6652   86.7459    9.6263 N.ar    1  UNL1       -0.2245
      4 C          61.5299   87.6590   10.4438 C.ar    1  UNL1        0.0892
      5 C          62.5072   87.3919   11.5500 C.ar    1  UNL1        0.0198
      6 C          63.2415   88.5308   12.1932 C.ar    1  UNL1        0.0061
      7 C          62.9986   89.9367   11.7302 C.ar    1  UNL1        0.0540
      8 C          62.0214   90.2038   10.6240 C.ar    1  UNL1        0.0126
      9 C          61.2871   89.0650    9.9808 C.ar    1  UNL1        0.0498
     10 S          60.2722   89.0207    8.8772 S.2     1  UNL1       -0.0520
     11 H          58.7134   86.1198    7.5797 H       1  UNL1        0.1442
     12 H          58.4373   87.7181    7.0534 H       1  UNL1        0.1442
     13 C          63.7330   91.0756   12.3735 C.2     1  UNL1        0.2461
     14 O          63.4596   91.4313   13.8048 O.2     1  UNL1       -0.2701
     15 N          64.7408   91.8587   11.5854 N.am    1  UNL1       -0.2969
     16 H          64.9203   91.6252   10.6460 H       1  UNL1        0.1501
     17 C          65.4752   92.9975   12.2287 C.3     1  UNL1        0.1166
     18 C          66.4527   92.7304   13.3346 C.ar    1  UNL1       -0.0026
     19 C          67.7077   91.9575   13.0559 C.ar    1  UNL1       -0.0026
     20 C          68.6852   91.6904   14.1618 C.ar    1  UNL1       -0.0003
     21 C          68.4077   92.1962   15.5465 C.ar    1  UNL1       -0.0000
     22 C          67.1527   92.9690   15.8252 C.ar    1  UNL1       -0.0003
     23 C          66.1752   93.2362   14.7192 C.ar    1  UNL1       -0.0026
@<TRIPOS>BOND
     1     1     2    1
     2     2     3   ar
     3     3     4   ar
     4     4     5   ar
     5     5     6   ar
     6     6     7   ar
     7     7    13    1
     8    13    14    2
     9    13    15   am
    10    15    17    1
    11    17    18    1
    12    18    19   ar
    13    19    20   ar
    14    20    21   ar
    15    21    22   ar
    16    22    23   ar
    17     7     8   ar
    18     8     9   ar
    19     9    10   ar
    20    10     2   ar
    21     9     4   ar
    22    23    18   ar
    23     1    11    1
    24     1    12    1
    25    15    16    1
