@<TRIPOS>MOLECULE
*****
 37 41 0 0 0
SMALL
GASTEIGER

@<TRIPOS>ATOM
      1 N          62.1359   87.2839   11.1574 N.ar    1  UNL1       -0.2558
      2 N          61.0868   87.9945   10.3545 N.ar    1  UNL1       -0.1727
      3 C          61.0232   89.4159   10.8295 C.ar    1  UNL1        0.0935
      4 C          60.1102   90.4821   10.3008 C.3     1  UNL1        0.0553
      5 C          62.0331   89.5839   11.9259 C.ar    1  UNL1        0.0792
      6 C          62.7207   88.2662   12.1285 C.ar    1  UNL1        0.0704
      7 C          63.8031   87.9810   13.1270 C.3     1  UNL1        0.0531
      8 N          63.3208   82.9641   10.7280 N.3     1  UNL1       -0.2649
      9 C          62.8853   83.4932   12.0623 C.3     1  UNL1        0.0745
     10 C          62.4903   84.9332   12.2054 C.3     1  UNL1        0.0417
     11 C          62.5309   85.8440   11.0143 C.3     1  UNL1        0.1076
     12 C          62.9664   85.3148    9.6801 C.3     1  UNL1        0.0417
     13 C          63.3614   83.8749    9.5369 C.3     1  UNL1        0.0745
     14 C          63.7158   81.5240   10.5849 C.3     1  UNL1        0.1584
     15 C          62.0485   79.7255   13.7050 C.3     1  UNL1        0.1107
     16 N          62.7117   80.7727   12.8602 N.am    1  UNL1       -0.3015
     17 C          63.0526   80.4769   11.4297 C.2     1  UNL1        0.2389
     18 O          62.7304   79.1341   10.8441 O.2     1  UNL1       -0.2736
     19 H          62.9231   81.6540   13.2446 H       1  UNL1        0.1495
     20 N          62.3070   90.8476   12.6861 N.pl3   1  UNL1       -0.2806
     21 H          61.5588   91.4042   13.0016 H       1  UNL1        0.1551
     22 C          63.7209   91.2632   12.9656 C.ar    1  UNL1        0.2208
     23 N          64.2983   91.0828   14.3381 N.ar    1  UNL1       -0.2111
     24 C          65.7122   91.4984   14.6176 C.ar    1  UNL1        0.1147
     25 C          66.5487   92.0945   13.5245 C.ar    1  UNL1        0.0946
     26 CL         67.9626   92.5102   13.8039 Cl      1  UNL1       -0.0790
     27 C          65.9713   92.2750   12.1518 C.ar    1  UNL1        0.0992
     28 N          64.5574   91.8593   11.8724 N.ar    1  UNL1       -0.2126
     29 C          66.8078   92.8711   11.0587 C.ar    1  UNL1        0.0572
     30 C          67.9543   92.2013   10.3610 C.ar    1  UNL1        0.1235
     31 N          68.4997   93.1580    9.3424 N.ar    1  UNL1       -0.1634
     32 N          67.6902   94.4190    9.4106 N.ar    1  UNL1       -0.2281
     33 C          67.7702   95.7057    8.6439 C.ar    1  UNL1        0.1004
     34 C          66.8044   96.8151    8.9379 C.ar    1  UNL1        0.0207
     35 C          65.7587   96.6378    9.9986 C.ar    1  UNL1        0.0031
     36 C          65.6788   95.3511   10.7653 C.ar    1  UNL1        0.0193
     37 C          66.6445   94.2417   10.4713 C.ar    1  UNL1        0.0858
@<TRIPOS>BOND
     1    15    16    1
     2    16    17   am
     3    17    18    2
     4    17    14    1
     5    14     8    1
     6     8     9    1
     7     9    10    1
     8    10    11    1
     9    11     1    1
    10     1     2   ar
    11     2     3   ar
    12     3     4    1
    13     3     5   ar
    14     5    20    1
    15    20    22    1
    16    22    23   ar
    17    23    24   ar
    18    24    25   ar
    19    25    26    1
    20    25    27   ar
    21    27    29    1
    22    29    30   ar
    23    30    31   ar
    24    31    32   ar
    25    32    33   ar
    26    33    34   ar
    27    34    35   ar
    28    35    36   ar
    29    36    37   ar
    30    27    28   ar
    31     5     6   ar
    32     6     7    1
    33    11    12    1
    34    12    13    1
    35    13     8    1
    36     6     1   ar
    37    28    22   ar
    38    37    29   ar
    39    37    32   ar
    40    16    19    1
    41    20    21    1
@<TRIPOS>MOLECULE
*****
 37 41 0 0 0
SMALL
GASTEIGER

@<TRIPOS>ATOM
      1 N          61.8821   86.6414   11.0207 N.ar    1  UNL1       -0.2558
      2 N          62.0204   85.1792   11.3258 N.ar    1  UNL1       -0.1727
      3 C          62.9259   85.0369   12.5131 C.ar    1  UNL1        0.0935
      4 C          63.3377   83.7470   13.1584 C.3     1  UNL1        0.0553
      5 C          63.3473   86.4113   12.9420 C.ar    1  UNL1        0.0792
      6 C          62.7021   87.4028   12.0196 C.ar    1  UNL1        0.0704
      7 C          62.8510   88.8939   12.0847 C.3     1  UNL1        0.0531
      8 N          59.4366   88.4295    7.6933 N.3     1  UNL1       -0.2649
      9 C          59.6114   86.9422    7.7798 C.3     1  UNL1        0.0745
     10 C          60.4266   86.3462    8.8890 C.3     1  UNL1        0.0417
     11 C          61.0670   87.2374    9.9116 C.3     1  UNL1        0.1076
     12 C          60.8921   88.7246    9.8250 C.3     1  UNL1        0.0417
     13 C          60.0769   89.3207    8.7159 C.3     1  UNL1        0.0745
     14 C          58.6214   89.0256    6.5841 C.3     1  UNL1        0.1584
     15 C          58.7800   92.3883    4.4825 C.3     1  UNL1        0.1107
     16 N          58.2371   91.2382    5.2778 N.am    1  UNL1       -0.3015
     17 C          59.1643   90.1756    5.7888 C.2     1  UNL1        0.2389
     18 O          60.6346   90.2631    5.5044 O.2     1  UNL1       -0.2736
     19 H          57.2721   91.1808    5.4645 H       1  UNL1        0.1495
     20 N          64.2544   86.7367   14.0913 N.pl3   1  UNL1       -0.2806
     21 H          64.9225   86.0793   14.3926 H       1  UNL1        0.1551
     22 C          64.1437   88.0638   14.7818 C.ar    1  UNL1        0.2208
     23 N          63.2634   88.2108   15.9873 N.ar    1  UNL1       -0.2111
     24 C          63.1527   89.5379   16.6778 C.ar    1  UNL1        0.1147
     25 C          63.9224   90.7178   16.1626 C.ar    1  UNL1        0.0946
     26 CL         63.8117   92.0449   16.8531 Cl      1  UNL1       -0.0790
     27 C          64.8027   90.5707   14.9570 C.ar    1  UNL1        0.0992
     28 N          64.9134   89.2437   14.2666 N.ar    1  UNL1       -0.2126
     29 C          65.5724   91.7507   14.4419 C.ar    1  UNL1        0.0572
     30 C          66.5446   92.5802   15.2272 C.ar    1  UNL1        0.1235
     31 N          67.0779   93.6505   14.3216 N.ar    1  UNL1       -0.1634
     32 N          66.4354   93.4824   12.9767 N.ar    1  UNL1       -0.2281
     33 C          66.5773   94.2469   11.6939 C.ar    1  UNL1        0.1004
     34 C          65.7888   93.8371   10.4855 C.ar    1  UNL1        0.0207
     35 C          64.8583   92.6630   10.5598 C.ar    1  UNL1        0.0031
     36 C          64.7163   91.8986   11.8426 C.ar    1  UNL1        0.0193
     37 C          65.5048   92.3083   13.0510 C.ar    1  UNL1        0.0858
@<TRIPOS>BOND
     1    15    16    1
     2    16    17   am
     3    17    18    2
     4    17    14    1
     5    14     8    1
     6     8     9    1
     7     9    10    1
     8    10    11    1
     9    11     1    1
    10     1     2   ar
    11     2     3   ar
    12     3     4    1
    13     3     5   ar
    14     5    20    1
    15    20    22    1
    16    22    23   ar
    17    23    24   ar
    18    24    25   ar
    19    25    26    1
    20    25    27   ar
    21    27    29    1
    22    29    30   ar
    23    30    31   ar
    24    31    32   ar
    25    32    33   ar
    26    33    34   ar
    27    34    35   ar
    28    35    36   ar
    29    36    37   ar
    30    27    28   ar
    31     5     6   ar
    32     6     7    1
    33    11    12    1
    34    12    13    1
    35    13     8    1
    36     6     1   ar
    37    28    22   ar
    38    37    29   ar
    39    37    32   ar
    40    16    19    1
    41    20    21    1
@<TRIPOS>MOLECULE
*****
 37 41 0 0 0
SMALL
GASTEIGER

@<TRIPOS>ATOM
      1 N          63.9097   88.4645   15.2142 N.ar    1  UNL1       -0.2558
      2 N          63.2045   88.5346   16.5363 N.ar    1  UNL1       -0.1727
      3 C          63.0806   87.1383   17.0701 C.ar    1  UNL1        0.0935
      4 C          62.4405   86.7442   18.3681 C.3     1  UNL1        0.0553
      5 C          63.7092   86.2052   16.0780 C.ar    1  UNL1        0.0792
      6 C          64.2217   87.0250   14.9309 C.ar    1  UNL1        0.0704
      7 C          64.9229   86.4976   13.7144 C.3     1  UNL1        0.0531
      8 N          64.9133   91.9595   12.5631 N.3     1  UNL1       -0.2649
      9 C          63.8226   91.0081   12.1690 C.3     1  UNL1        0.0745
     10 C          63.4881   89.8431   13.0528 C.3     1  UNL1        0.0417
     11 C          64.2442   89.6295   14.3305 C.3     1  UNL1        0.1076
     12 C          65.3349   90.5808   14.7245 C.3     1  UNL1        0.0417
     13 C          65.6695   91.7459   13.8409 C.3     1  UNL1        0.0745
     14 C          65.2478   93.1245   11.6794 C.3     1  UNL1        0.1584
     15 C          67.8543   93.8796    8.7836 C.3     1  UNL1        0.1107
     16 N          66.5896   93.8888    9.5901 N.am    1  UNL1       -0.3015
     17 C          66.5125   93.1153   10.8729 C.2     1  UNL1        0.2389
     18 O          67.7001   92.3325   11.3492 O.2     1  UNL1       -0.2736
     19 H          65.8101   94.4026    9.2775 H       1  UNL1        0.1495
     20 N          63.8081   84.7143   16.2098 N.pl3   1  UNL1       -0.2806
     21 H          64.0688   84.3124   17.0698 H       1  UNL1        0.1551
     22 C          63.5096   83.8357   15.0312 C.ar    1  UNL1        0.2208
     23 N          63.2884   82.3654   15.2289 N.ar    1  UNL1       -0.2111
     24 C          62.9900   81.4867   14.0504 C.ar    1  UNL1        0.1147
     25 C          62.9127   82.0785   12.6742 C.ar    1  UNL1        0.0946
     26 CL         62.6142   81.1999   11.4957 Cl      1  UNL1       -0.0790
     27 C          63.1339   83.5490   12.4765 C.ar    1  UNL1        0.0992
     28 N          63.4323   84.4275   13.6551 N.ar    1  UNL1       -0.2126
     29 C          63.0566   84.1407   11.1004 C.ar    1  UNL1        0.0572
     30 C          63.7779   83.6408    9.8839 C.ar    1  UNL1        0.1235
     31 N          63.4115   84.5274    8.7308 N.ar    1  UNL1       -0.1634
     32 N          62.4638   85.5753    9.2346 N.ar    1  UNL1       -0.2281
     33 C          61.7722   86.7162    8.5490 C.ar    1  UNL1        0.1004
     34 C          60.8613   87.6181    9.3279 C.ar    1  UNL1        0.0207
     35 C          60.6420   87.3791   10.7924 C.ar    1  UNL1        0.0031
     36 C          61.3335   86.2382   11.4780 C.ar    1  UNL1        0.0193
     37 C          62.2444   85.3363   10.6991 C.ar    1  UNL1        0.0858
@<TRIPOS>BOND
     1    15    16    1
     2    16    17   am
     3    17    18    2
     4    17    14    1
     5    14     8    1
     6     8     9    1
     7     9    10    1
     8    10    11    1
     9    11     1    1
    10     1     2   ar
    11     2     3   ar
    12     3     4    1
    13     3     5   ar
    14     5    20    1
    15    20    22    1
    16    22    23   ar
    17    23    24   ar
    18    24    25   ar
    19    25    26    1
    20    25    27   ar
    21    27    29    1
    22    29    30   ar
    23    30    31   ar
    24    31    32   ar
    25    32    33   ar
    26    33    34   ar
    27    34    35   ar
    28    35    36   ar
    29    36    37   ar
    30    27    28   ar
    31     5     6   ar
    32     6     7    1
    33    11    12    1
    34    12    13    1
    35    13     8    1
    36     6     1   ar
    37    28    22   ar
    38    37    29   ar
    39    37    32   ar
    40    16    19    1
    41    20    21    1
@<TRIPOS>MOLECULE
*****
 37 41 0 0 0
SMALL
GASTEIGER

@<TRIPOS>ATOM
      1 N          63.3597   87.2964   13.2043 N.ar    1  UNL1       -0.2558
      2 N          63.1159   88.1750   12.0131 N.ar    1  UNL1       -0.1727
      3 C          63.0874   89.5985   12.4851 C.ar    1  UNL1        0.0935
      4 C          62.8707   90.8083   11.6252 C.3     1  UNL1        0.0553
      5 C          63.3135   89.5998   13.9680 C.ar    1  UNL1        0.0792
      6 C          63.4818   88.1770   14.4125 C.ar    1  UNL1        0.0704
      7 C          63.7288   87.7159   15.8182 C.3     1  UNL1        0.0531
      8 N          63.6703   82.8074   13.1610 N.3     1  UNL1       -0.2649
      9 C          64.4278   83.6017   14.1834 C.3     1  UNL1        0.0745
     10 C          64.3243   85.0982   14.1978 C.3     1  UNL1        0.0417
     11 C          63.4633   85.8001   13.1899 C.3     1  UNL1        0.1076
     12 C          62.7058   85.0058   12.1676 C.3     1  UNL1        0.0417
     13 C          62.8093   83.5094   12.1531 C.3     1  UNL1        0.0745
     14 C          63.7739   81.3110   13.1466 C.3     1  UNL1        0.1584
     15 C          60.1390   80.0990   14.1803 C.3     1  UNL1        0.1107
     16 N          61.3788   80.9376   14.0814 N.am    1  UNL1       -0.3015
     17 C          62.5341   80.4724   13.2455 C.2     1  UNL1        0.2389
     18 O          62.4497   79.1687   12.5084 O.2     1  UNL1       -0.2736
     19 H          61.4342   81.7932   14.5652 H       1  UNL1        0.1495
     20 N          63.3626   90.8112   14.8512 N.pl3   1  UNL1       -0.2806
     21 H          62.6012   91.0238   15.4379 H       1  UNL1        0.1551
     22 C          64.5719   91.6987   14.8405 C.ar    1  UNL1        0.2208
     23 N          65.4145   91.8330   16.0742 N.ar    1  UNL1       -0.2111
     24 C          66.6237   92.7205   16.0635 C.ar    1  UNL1        0.1147
     25 C          66.9903   93.4736   14.8192 C.ar    1  UNL1        0.0946
     26 CL         68.1995   94.3611   14.8085 Cl      1  UNL1       -0.0790
     27 C          66.1476   93.3393   13.5855 C.ar    1  UNL1        0.0992
     28 N          64.9385   92.4518   13.5962 N.ar    1  UNL1       -0.2126
     29 C          66.5143   94.0924   12.3411 C.ar    1  UNL1        0.0572
     30 C          66.2839   95.5541   12.0951 C.ar    1  UNL1        0.1235
     31 N          66.8029   95.8811   10.7263 N.ar    1  UNL1       -0.1634
     32 N          67.3540   94.6216   10.1263 N.ar    1  UNL1       -0.2281
     33 C          67.9951   94.3385    8.8002 C.ar    1  UNL1        0.1004
     34 C          68.4579   92.9499    8.4721 C.ar    1  UNL1        0.0207
     35 C          68.2795   91.8445    9.4701 C.ar    1  UNL1        0.0031
     36 C          67.6383   92.1275   10.7962 C.ar    1  UNL1        0.0193
     37 C          67.1756   93.5161   11.1244 C.ar    1  UNL1        0.0858
@<TRIPOS>BOND
     1    15    16    1
     2    16    17   am
     3    17    18    2
     4    17    14    1
     5    14     8    1
     6     8     9    1
     7     9    10    1
     8    10    11    1
     9    11     1    1
    10     1     2   ar
    11     2     3   ar
    12     3     4    1
    13     3     5   ar
    14     5    20    1
    15    20    22    1
    16    22    23   ar
    17    23    24   ar
    18    24    25   ar
    19    25    26    1
    20    25    27   ar
    21    27    29    1
    22    29    30   ar
    23    30    31   ar
    24    31    32   ar
    25    32    33   ar
    26    33    34   ar
    27    34    35   ar
    28    35    36   ar
    29    36    37   ar
    30    27    28   ar
    31     5     6   ar
    32     6     7    1
    33    11    12    1
    34    12    13    1
    35    13     8    1
    36     6     1   ar
    37    28    22   ar
    38    37    29   ar
    39    37    32   ar
    40    16    19    1
    41    20    21    1
@<TRIPOS>MOLECULE
*****
 37 41 0 0 0
SMALL
GASTEIGER

@<TRIPOS>ATOM
      1 N          63.4253   86.7599   14.1206 N.ar    1  UNL1       -0.2558
      2 N          63.3769   86.7087   15.6191 N.ar    1  UNL1       -0.1727
      3 C          63.2687   88.1157   16.1277 C.ar    1  UNL1        0.0935
      4 C          63.1923   88.5294   17.5675 C.3     1  UNL1        0.0553
      5 C          63.2502   89.0365   14.9436 C.ar    1  UNL1        0.0792
      6 C          63.3470   88.1985   13.7032 C.ar    1  UNL1        0.0704
      7 C          63.3628   88.7095   12.2931 C.3     1  UNL1        0.0531
      8 N          63.7487   83.2193   11.3622 N.3     1  UNL1       -0.2649
      9 C          62.7716   84.3171   11.0620 C.3     1  UNL1        0.0745
     10 C          62.6638   85.4974   11.9815 C.3     1  UNL1        0.0417
     11 C          63.5331   85.5797   13.2012 C.3     1  UNL1        0.1076
     12 C          64.5101   84.4819   13.5013 C.3     1  UNL1        0.0417
     13 C          64.6179   83.3017   12.5818 C.3     1  UNL1        0.0745
     14 C          63.8564   82.0390   10.4426 C.3     1  UNL1        0.1584
     15 C          62.5399   78.3014   10.2274 C.3     1  UNL1        0.1107
     16 N          63.1384   79.6184    9.8307 N.am    1  UNL1       -0.3015
     17 C          63.2579   80.7221   10.8394 C.2     1  UNL1        0.2389
     18 O          62.7790   80.5088   12.2448 O.2     1  UNL1       -0.2736
     19 H          63.4527   79.7583    8.9083 H       1  UNL1        0.1495
     20 N          63.1522   90.5325   14.9916 N.pl3   1  UNL1       -0.2806
     21 H          62.2710   90.9661   15.0607 H       1  UNL1        0.1551
     22 C          64.3967   91.3679   14.9344 C.ar    1  UNL1        0.2208
     23 N          64.9565   91.9666   16.1906 N.ar    1  UNL1       -0.2111
     24 C          66.2010   92.8020   16.1334 C.ar    1  UNL1        0.1147
     25 C          66.8856   93.0388   14.8200 C.ar    1  UNL1        0.0946
     26 CL         68.1301   93.8743   14.7628 Cl      1  UNL1       -0.0790
     27 C          66.3258   92.4401   13.5636 C.ar    1  UNL1        0.0992
     28 N          65.0813   91.6047   13.6209 N.ar    1  UNL1       -0.2126
     29 C          67.0104   92.6769   12.2502 C.ar    1  UNL1        0.0572
     30 C          68.0229   91.7753   11.6085 C.ar    1  UNL1        0.1235
     31 N          68.4410   92.3981   10.3095 N.ar    1  UNL1       -0.1634
     32 N          67.6869   93.6847   10.1484 N.ar    1  UNL1       -0.2281
     33 C          67.6910   94.7216    9.0646 C.ar    1  UNL1        0.1004
     34 C          66.8111   95.9308    9.1801 C.ar    1  UNL1        0.0207
     35 C          65.9269   96.1031   10.3795 C.ar    1  UNL1        0.0031
     36 C          65.9227   95.0663   11.4634 C.ar    1  UNL1        0.0193
     37 C          66.8027   93.8571   11.3478 C.ar    1  UNL1        0.0858
@<TRIPOS>BOND
     1    15    16    1
     2    16    17   am
     3    17    18    2
     4    17    14    1
     5    14     8    1
     6     8     9    1
     7     9    10    1
     8    10    11    1
     9    11     1    1
    10     1     2   ar
    11     2     3   ar
    12     3     4    1
    13     3     5   ar
    14     5    20    1
    15    20    22    1
    16    22    23   ar
    17    23    24   ar
    18    24    25   ar
    19    25    26    1
    20    25    27   ar
    21    27    29    1
    22    29    30   ar
    23    30    31   ar
    24    31    32   ar
    25    32    33   ar
    26    33    34   ar
    27    34    35   ar
    28    35    36   ar
    29    36    37   ar
    30    27    28   ar
    31     5     6   ar
    32     6     7    1
    33    11    12    1
    34    12    13    1
    35    13     8    1
    36     6     1   ar
    37    28    22   ar
    38    37    29   ar
    39    37    32   ar
    40    16    19    1
    41    20    21    1
@<TRIPOS>MOLECULE
*****
 37 41 0 0 0
SMALL
GASTEIGER

@<TRIPOS>ATOM
      1 N          62.4686   88.1442   11.7988 N.ar    1  UNL1       -0.2558
      2 N          63.1184   86.8974   12.3218 N.ar    1  UNL1       -0.1727
      3 C          63.8372   87.2467   13.5912 C.ar    1  UNL1        0.0935
      4 C          64.6234   86.2997   14.4484 C.3     1  UNL1        0.0553
      5 C          63.6316   88.7094   13.8528 C.ar    1  UNL1        0.0792
      6 C          62.7858   89.2640   12.7450 C.ar    1  UNL1        0.0704
      7 C          62.3362   90.6884   12.6077 C.3     1  UNL1        0.0531
      8 N          60.0011   88.4681    8.0497 N.3     1  UNL1       -0.2649
      9 C          60.1264   89.6466    8.9691 C.3     1  UNL1        0.0745
     10 C          60.9490   89.5386   10.2189 C.3     1  UNL1        0.0417
     11 C          61.6461   88.2522   10.5491 C.3     1  UNL1        0.1076
     12 C          61.5208   87.0738    9.6296 C.3     1  UNL1        0.0417
     13 C          60.6983   87.1817    8.3799 C.3     1  UNL1        0.0745
     14 C          59.1786   88.5761    6.7999 C.3     1  UNL1        0.1584
     15 C          57.8352   91.7908    4.8996 C.3     1  UNL1        0.1107
     16 N          57.8532   90.5081    5.6771 N.am    1  UNL1       -0.3015
     17 C          59.1605   89.8588    6.0224 C.2     1  UNL1        0.2389
     18 O          60.4498   90.4921    5.5903 O.2     1  UNL1       -0.2736
     19 H          57.0070   90.0924    5.9607 H       1  UNL1        0.1495
     20 N          64.1762   89.4817   15.0176 N.pl3   1  UNL1       -0.2806
     21 H          64.0382   89.1517   15.9348 H       1  UNL1        0.1551
     22 C          64.9312   90.7568   14.7851 C.ar    1  UNL1        0.2208
     23 N          65.0258   91.7820   15.8760 N.ar    1  UNL1       -0.2111
     24 C          65.7807   93.0571   15.6434 C.ar    1  UNL1        0.1147
     25 C          66.4410   93.3071   14.3200 C.ar    1  UNL1        0.0946
     26 CL         67.1960   94.5822   14.0875 Cl      1  UNL1       -0.0790
     27 C          66.3464   92.2819   13.2290 C.ar    1  UNL1        0.0992
     28 N          65.5915   91.0068   13.4616 N.ar    1  UNL1       -0.2126
     29 C          67.0068   92.5318   11.9056 C.ar    1  UNL1        0.0572
     30 C          68.0855   91.6936   11.2862 C.ar    1  UNL1        0.1235
     31 N          68.4497   92.3077    9.9670 N.ar    1  UNL1       -0.1634
     32 N          67.5960   93.5254    9.7711 N.ar    1  UNL1       -0.2281
     33 C          67.5155   94.5259    8.6565 C.ar    1  UNL1        0.1004
     34 C          66.5432   95.6650    8.7400 C.ar    1  UNL1        0.0207
     35 C          65.6514   95.8036    9.9381 C.ar    1  UNL1        0.0031
     36 C          65.7319   94.8030   11.0527 C.ar    1  UNL1        0.0193
     37 C          66.7042   93.6639   10.9692 C.ar    1  UNL1        0.0858
@<TRIPOS>BOND
     1    15    16    1
     2    16    17   am
     3    17    18    2
     4    17    14    1
     5    14     8    1
     6     8     9    1
     7     9    10    1
     8    10    11    1
     9    11     1    1
    10     1     2   ar
    11     2     3   ar
    12     3     4    1
    13     3     5   ar
    14     5    20    1
    15    20    22    1
    16    22    23   ar
    17    23    24   ar
    18    24    25   ar
    19    25    26    1
    20    25    27   ar
    21    27    29    1
    22    29    30   ar
    23    30    31   ar
    24    31    32   ar
    25    32    33   ar
    26    33    34   ar
    27    34    35   ar
    28    35    36   ar
    29    36    37   ar
    30    27    28   ar
    31     5     6   ar
    32     6     7    1
    33    11    12    1
    34    12    13    1
    35    13     8    1
    36     6     1   ar
    37    28    22   ar
    38    37    29   ar
    39    37    32   ar
    40    16    19    1
    41    20    21    1
@<TRIPOS>MOLECULE
*****
 37 41 0 0 0
SMALL
GASTEIGER

@<TRIPOS>ATOM
      1 N          62.4762   90.2343   10.5031 N.ar    1  UNL1       -0.2558
      2 N          61.5244   90.7373    9.4585 N.ar    1  UNL1       -0.1727
      3 C          60.7747   89.5600    8.9090 C.ar    1  UNL1        0.0935
      4 C          59.7215   89.6054    7.8420 C.3     1  UNL1        0.0553
      5 C          61.2632   88.3293    9.6140 C.ar    1  UNL1        0.0792
      6 C          62.3149   88.7461   10.5992 C.ar    1  UNL1        0.0704
      7 C          63.0720   87.8348   11.5189 C.3     1  UNL1        0.0531
      8 N          65.3171   92.7484   12.9235 N.3     1  UNL1       -0.2649
      9 C          64.4036   91.7770   13.6105 C.3     1  UNL1        0.0745
     10 C          63.4566   90.9390   12.8036 C.3     1  UNL1        0.0417
     11 C          63.4232   91.0723   11.3099 C.3     1  UNL1        0.1076
     12 C          64.3367   92.0437   10.6231 C.3     1  UNL1        0.0417
     13 C          65.2838   92.8818   11.4298 C.3     1  UNL1        0.0745
     14 C          66.2641   93.5865   13.7304 C.3     1  UNL1        0.1584
     15 C          69.0514   92.5442   16.3561 C.3     1  UNL1        0.1107
     16 N          67.8164   93.1616   15.7699 N.am    1  UNL1       -0.3015
     17 C          67.4991   92.9690   14.3166 C.2     1  UNL1        0.2389
     18 O          68.4167   92.1590   13.4495 O.2     1  UNL1       -0.2736
     19 H          67.2142   93.6933   16.3390 H       1  UNL1        0.1495
     20 N          60.7842   86.9281    9.3756 N.pl3   1  UNL1       -0.2806
     21 H          59.8750   86.7703    9.0326 H       1  UNL1        0.1551
     22 C          61.6905   85.7670    9.6597 C.ar    1  UNL1        0.2208
     23 N          62.5181   85.1745    8.5580 N.ar    1  UNL1       -0.2111
     24 C          63.4244   84.0135    8.8421 C.ar    1  UNL1        0.1147
     25 C          63.5030   83.4450   10.2280 C.ar    1  UNL1        0.0946
     26 CL         64.4092   82.2840   10.5121 Cl      1  UNL1       -0.0790
     27 C          62.6753   84.0376   11.3298 C.ar    1  UNL1        0.0992
     28 N          61.7691   85.1986   11.0456 N.ar    1  UNL1       -0.2126
     29 C          62.7539   83.4692   12.7157 C.ar    1  UNL1        0.0572
     30 C          62.4088   82.0646   13.1134 C.ar    1  UNL1        0.1235
     31 N          62.6330   81.9329   14.5907 N.ar    1  UNL1       -0.1634
     32 N          63.1167   83.2560   15.1060 N.ar    1  UNL1       -0.2281
     33 C          63.4988   83.7189   16.4806 C.ar    1  UNL1        0.1004
     34 C          63.9555   85.1312   16.6965 C.ar    1  UNL1        0.0207
     35 C          64.0302   86.0807   15.5376 C.ar    1  UNL1        0.0031
     36 C          63.6481   85.6178   14.1629 C.ar    1  UNL1        0.0193
     37 C          63.1914   84.2055   13.9471 C.ar    1  UNL1        0.0858
@<TRIPOS>BOND
     1    15    16    1
     2    16    17   am
     3    17    18    2
     4    17    14    1
     5    14     8    1
     6     8     9    1
     7     9    10    1
     8    10    11    1
     9    11     1    1
    10     1     2   ar
    11     2     3   ar
    12     3     4    1
    13     3     5   ar
    14     5    20    1
    15    20    22    1
    16    22    23   ar
    17    23    24   ar
    18    24    25   ar
    19    25    26    1
    20    25    27   ar
    21    27    29    1
    22    29    30   ar
    23    30    31   ar
    24    31    32   ar
    25    32    33   ar
    26    33    34   ar
    27    34    35   ar
    28    35    36   ar
    29    36    37   ar
    30    27    28   ar
    31     5     6   ar
    32     6     7    1
    33    11    12    1
    34    12    13    1
    35    13     8    1
    36     6     1   ar
    37    28    22   ar
    38    37    29   ar
    39    37    32   ar
    40    16    19    1
    41    20    21    1
@<TRIPOS>MOLECULE
*****
 37 41 0 0 0
SMALL
GASTEIGER

@<TRIPOS>ATOM
      1 N          62.4058   90.6696   12.8954 N.ar    1  UNL1       -0.2558
      2 N          61.1679   90.0154   13.4337 N.ar    1  UNL1       -0.1727
      3 C          60.2830   89.6712   12.2725 C.ar    1  UNL1        0.0935
      4 C          58.9426   89.0029   12.3531 C.3     1  UNL1        0.0553
      5 C          60.9740   90.1127   11.0164 C.ar    1  UNL1        0.0792
      6 C          62.2860   90.7298   11.4014 C.ar    1  UNL1        0.0704
      7 C          63.2999   91.3058   10.4581 C.3     1  UNL1        0.0531
      8 N          65.8705   92.1856   15.3341 N.3     1  UNL1       -0.2649
      9 C          64.7660   91.4172   15.9971 C.3     1  UNL1        0.0745
     10 C          63.6110   90.9119   15.1842 C.3     1  UNL1        0.0417
     11 C          63.5607   91.1750   13.7083 C.3     1  UNL1        0.1076
     12 C          64.6652   91.9434   13.0454 C.3     1  UNL1        0.0417
     13 C          65.8201   92.4488   13.8582 C.3     1  UNL1        0.0745
     14 C          67.0254   92.6910   16.1471 C.3     1  UNL1        0.1584
     15 C          70.1898   92.1847   13.8061 C.3     1  UNL1        0.1107
     16 N          68.8569   91.9589   14.4561 N.am    1  UNL1       -0.3015
     17 C          68.3583   92.9168   15.4971 C.2     1  UNL1        0.2389
     18 O          69.1924   94.1006   15.8881 O.2     1  UNL1       -0.2736
     19 H          68.3094   91.1820   14.1995 H       1  UNL1        0.1495
     20 N          60.4458   89.9634    9.6205 N.pl3   1  UNL1       -0.2806
     21 H          60.0617   90.7405    9.1537 H       1  UNL1        0.1551
     22 C          60.5026   88.6301    8.9356 C.ar    1  UNL1        0.2208
     23 N          59.5978   88.3445    7.7739 N.ar    1  UNL1       -0.2111
     24 C          59.6546   87.0112    7.0890 C.ar    1  UNL1        0.1147
     25 C          60.6163   85.9634    7.5660 C.ar    1  UNL1        0.0946
     26 CL         60.6731   84.6301    6.8811 Cl      1  UNL1       -0.0790
     27 C          61.5212   86.2490    8.7278 C.ar    1  UNL1        0.0992
     28 N          61.4643   87.5823    9.4126 N.ar    1  UNL1       -0.2126
     29 C          62.4828   85.2013    9.2047 C.ar    1  UNL1        0.0572
     30 C          63.3558   84.3449    8.3361 C.ar    1  UNL1        0.1235
     31 N          64.1528   83.4404    9.2286 N.ar    1  UNL1       -0.1634
     32 N          63.7724   83.7377   10.6488 N.ar    1  UNL1       -0.2281
     33 C          64.2325   83.1580   11.9535 C.ar    1  UNL1        0.1004
     34 C          63.6605   83.6667   13.2434 C.ar    1  UNL1        0.0207
     35 C          62.6284   84.7551   13.2286 C.ar    1  UNL1        0.0031
     36 C          62.1683   85.3347   11.9240 C.ar    1  UNL1        0.0193
     37 C          62.7403   84.8260   10.6340 C.ar    1  UNL1        0.0858
@<TRIPOS>BOND
     1    15    16    1
     2    16    17   am
     3    17    18    2
     4    17    14    1
     5    14     8    1
     6     8     9    1
     7     9    10    1
     8    10    11    1
     9    11     1    1
    10     1     2   ar
    11     2     3   ar
    12     3     4    1
    13     3     5   ar
    14     5    20    1
    15    20    22    1
    16    22    23   ar
    17    23    24   ar
    18    24    25   ar
    19    25    26    1
    20    25    27   ar
    21    27    29    1
    22    29    30   ar
    23    30    31   ar
    24    31    32   ar
    25    32    33   ar
    26    33    34   ar
    27    34    35   ar
    28    35    36   ar
    29    36    37   ar
    30    27    28   ar
    31     5     6   ar
    32     6     7    1
    33    11    12    1
    34    12    13    1
    35    13     8    1
    36     6     1   ar
    37    28    22   ar
    38    37    29   ar
    39    37    32   ar
    40    16    19    1
    41    20    21    1
@<TRIPOS>MOLECULE
*****
 37 41 0 0 0
SMALL
GASTEIGER

@<TRIPOS>ATOM
      1 N          63.0590   85.1480   15.8217 N.ar    1  UNL1       -0.2558
      2 N          62.6008   85.3777   17.2315 N.ar    1  UNL1       -0.1727
      3 C          62.8572   86.8155   17.5737 C.ar    1  UNL1        0.0935
      4 C          62.5507   87.4780   18.8841 C.3     1  UNL1        0.0553
      5 C          63.4738   87.4743   16.3755 C.ar    1  UNL1        0.0792
      6 C          63.5985   86.4437   15.2927 C.ar    1  UNL1        0.0704
      7 C          64.1635   86.6693   13.9217 C.3     1  UNL1        0.0531
      8 N          62.8514   81.2550   13.5741 N.3     1  UNL1       -0.2649
      9 C          61.6223   81.8066   14.2337 C.3     1  UNL1        0.0745
     10 C          61.6915   83.1044   14.9829 C.3     1  UNL1        0.0417
     11 C          62.9898   83.8503   15.0725 C.3     1  UNL1        0.1076
     12 C          64.2188   83.2987   14.4129 C.3     1  UNL1        0.0417
     13 C          64.1497   82.0010   13.6637 C.3     1  UNL1        0.0745
     14 C          62.7821   79.9573   12.8249 C.3     1  UNL1        0.1584
     15 C          62.9893   78.6356    9.0887 C.3     1  UNL1        0.1107
     16 N          62.8465   78.6481   10.5818 N.am    1  UNL1       -0.3015
     17 C          62.9250   79.9448   11.3318 C.2     1  UNL1        0.2389
     18 O          63.1464   81.2288   10.5887 O.2     1  UNL1       -0.2736
     19 H          62.7011   77.8054   11.0695 H       1  UNL1        0.1495
     20 N          63.8922   88.9114   16.2774 N.pl3   1  UNL1       -0.2806
     21 H          64.1520   89.4050   17.0886 H       1  UNL1        0.1551
     22 C          63.9148   89.5966   14.9432 C.ar    1  UNL1        0.2208
     23 N          65.0206   90.5540   14.6104 N.ar    1  UNL1       -0.2111
     24 C          65.0432   91.2392   13.2763 C.ar    1  UNL1        0.1147
     25 C          63.9601   90.9670   12.2749 C.ar    1  UNL1        0.0946
     26 CL         63.9827   91.6522   10.9408 Cl      1  UNL1       -0.0790
     27 C          62.8543   90.0096   12.6077 C.ar    1  UNL1        0.0992
     28 N          62.8317   89.3245   13.9418 N.ar    1  UNL1       -0.2126
     29 C          61.7712   89.7375   11.6063 C.ar    1  UNL1        0.0572
     30 C          60.6896   90.6924   11.1960 C.ar    1  UNL1        0.1235
     31 N          59.8295   90.0076   10.1755 N.ar    1  UNL1       -0.1634
     32 N          60.3794   88.6296    9.9552 N.ar    1  UNL1       -0.2281
     33 C          59.9425   87.5053    9.0636 C.ar    1  UNL1        0.1004
     34 C          60.7057   86.2140    9.0563 C.ar    1  UNL1        0.0207
     35 C          61.9058   86.0470    9.9406 C.ar    1  UNL1        0.0031
     36 C          62.3426   87.1713   10.8322 C.ar    1  UNL1        0.0193
     37 C          61.5795   88.4626   10.8395 C.ar    1  UNL1        0.0858
@<TRIPOS>BOND
     1    15    16    1
     2    16    17   am
     3    17    18    2
     4    17    14    1
     5    14     8    1
     6     8     9    1
     7     9    10    1
     8    10    11    1
     9    11     1    1
    10     1     2   ar
    11     2     3   ar
    12     3     4    1
    13     3     5   ar
    14     5    20    1
    15    20    22    1
    16    22    23   ar
    17    23    24   ar
    18    24    25   ar
    19    25    26    1
    20    25    27   ar
    21    27    29    1
    22    29    30   ar
    23    30    31   ar
    24    31    32   ar
    25    32    33   ar
    26    33    34   ar
    27    34    35   ar
    28    35    36   ar
    29    36    37   ar
    30    27    28   ar
    31     5     6   ar
    32     6     7    1
    33    11    12    1
    34    12    13    1
    35    13     8    1
    36     6     1   ar
    37    28    22   ar
    38    37    29   ar
    39    37    32   ar
    40    16    19    1
    41    20    21    1
