@<TRIPOS>MOLECULE
*****
 42 47 0 0 0
SMALL
GASTEIGER

@<TRIPOS>ATOM
      1 C          58.7194   86.7273    8.4090 C.3     1  UNL1        0.0312
      2 C          59.5849   87.9328    8.1911 C.2     1  UNL1        0.0136
      3 C          59.3862   88.7891    6.9757 C.2     1  UNL1        0.0107
      4 C          60.2517   89.9946    6.7578 C.2     1  UNL1        0.0509
      5 C          61.3160   90.3440    7.7555 C.2     1  UNL1        0.0613
      6 C          61.5147   89.4878    8.9709 C.2     1  UNL1        0.2246
      7 N          62.4757   89.5821   10.1188 N.2     1  UNL1       -0.0378
      8 C          62.2041   88.4347   11.0461 C.2     1  UNL1        0.3605
      9 N          61.0753   87.6314   10.4713 N.2     1  UNL1       -0.0547
     10 C          60.6492   88.2822    9.1888 C.3     1  UNL1        0.2976
     11 C          62.9333   88.1421   12.3238 C.3     1  UNL1        0.2246
     12 C          63.4111   89.2697   13.1899 C.2     1  UNL1        0.0436
     13 C          64.1403   88.9770   14.4677 C.2     1  UNL1        0.0288
     14 C          64.3917   87.5567   14.8793 C.2     1  UNL1        0.0896
     15 N          63.9140   86.4290   14.0132 N.am    1  UNL1       -0.1770
     16 C          63.1848   86.7218   12.7355 C.2     1  UNL1        0.2627
     17 O          62.7070   85.5941   11.8694 O.2     1  UNL1       -0.2719
     18 N          63.1597   90.6900   12.7783 N.pl3   1  UNL1       -0.3329
     19 H          62.3850   91.1777   13.1406 H       1  UNL1        0.1466
     20 C          64.0885   91.3674   11.8148 C.3     1  UNL1        0.1211
     21 C          65.1409   92.3078   12.3228 C.3     1  UNL1        0.1522
     22 O          65.3204   92.5058   13.7988 O.3     1  UNL1       -0.3783
     23 H          64.6815   91.9561   14.2789 H       1  UNL1        0.2109
     24 C          66.0137   93.0503   11.3549 C.ar    1  UNL1        0.0067
     25 C          65.9051   94.5418   11.2387 C.ar    1  UNL1       -0.0018
     26 C          66.7779   95.2843   10.2708 C.ar    1  UNL1        0.0006
     27 C          67.7593   94.5352    9.4189 C.ar    1  UNL1        0.0114
     28 C          67.8679   93.0437    9.5351 C.ar    1  UNL1        0.0574
     29 CL         68.8494   92.2946    8.6832 Cl      1  UNL1       -0.0823
     30 C          66.9951   92.3012   10.5030 C.ar    1  UNL1        0.0095
     31 N          60.0529   90.8509    5.5423 N.pl3   1  UNL1       -0.3073
     32 C          61.2281   91.2263    4.6891 C.3     1  UNL1        0.0922
     33 C          61.0294   92.0825    3.4736 C.3     1  UNL1        0.0374
     34 C          59.6555   92.5633    3.1114 C.3     1  UNL1        0.0611
     35 C          58.4803   92.1878    3.9646 C.3     1  UNL1        0.0374
     36 C          58.6790   91.3316    5.1801 C.3     1  UNL1        0.0922
     37 N          59.4566   93.4195    1.8959 N.3     1  UNL1       -0.2696
     38 C          58.6943   92.8861    0.7193 C.3     1  UNL1        0.1046
     39 C          58.4954   93.7422   -0.4962 C.3     1  UNL1        0.1595
     40 O          59.0589   95.1318   -0.5351 O.3     1  UNL1       -0.3508
     41 C          59.8212   95.6652    0.6415 C.3     1  UNL1        0.1595
     42 C          60.0201   94.8091    1.8570 C.3     1  UNL1        0.1046
@<TRIPOS>BOND
     1     1     2    1
     2     2     3    2
     3     3     4    1
     4     4    31    1
     5    31    32    1
     6    32    33    1
     7    33    34    1
     8    34    37    1
     9    37    38    1
    10    38    39    1
    11    39    40    1
    12    40    41    1
    13    41    42    1
    14    34    35    1
    15    35    36    1
    16     4     5    2
    17     5     6    1
    18     6     7    2
    19     7     8    1
    20     8    11    1
    21    11    12    1
    22    12    18    1
    23    18    20    1
    24    20    21    1
    25    21    22    1
    26    21    24    1
    27    24    25   ar
    28    25    26   ar
    29    26    27   ar
    30    27    28   ar
    31    28    29    1
    32    28    30   ar
    33    12    13    2
    34    13    14    1
    35    14    15    2
    36    15    16    1
    37    16    17    2
    38     8     9    2
    39     9    10    1
    40    10     2    1
    41    36    31    1
    42    10     6    1
    43    42    37    1
    44    16    11    1
    45    30    24   ar
    46    18    19    1
    47    22    23    1
@<TRIPOS>MOLECULE
*****
 42 47 0 0 0
SMALL
GASTEIGER

@<TRIPOS>ATOM
      1 C          58.4524   86.4772    8.2136 C.3     1  UNL1        0.0312
      2 C          59.4017   87.6303    8.0755 C.2     1  UNL1        0.0136
      3 C          59.2536   88.5912    6.9333 C.2     1  UNL1        0.0107
      4 C          60.2029   89.7442    6.7952 C.2     1  UNL1        0.0509
      5 C          61.3005   89.9365    7.7994 C.2     1  UNL1        0.0613
      6 C          61.4486   88.9757    8.9417 C.2     1  UNL1        0.2246
      7 N          62.4260   88.9101   10.0776 N.2     1  UNL1       -0.0378
      8 C          62.0807   87.7164   10.9178 C.2     1  UNL1        0.3605
      9 N          60.8899   87.0443   10.3011 N.2     1  UNL1       -0.0547
     10 C          60.4993   87.8226    9.0797 C.3     1  UNL1        0.2976
     11 C          62.7999   87.2726   12.1571 C.3     1  UNL1        0.2246
     12 C          63.5278   88.2760   13.0017 C.2     1  UNL1        0.0436
     13 C          64.2470   87.8322   14.2410 C.2     1  UNL1        0.0288
     14 C          64.2383   86.3850   14.6357 C.2     1  UNL1        0.0896
     15 N          63.5104   85.3817   13.7910 N.am    1  UNL1       -0.1770
     16 C          62.7912   85.8255   12.5517 C.2     1  UNL1        0.2627
     17 O          62.0634   84.8221   11.7071 O.2     1  UNL1       -0.2719
     18 N          63.5365   89.7231   12.6071 N.pl3   1  UNL1       -0.3329
     19 H          63.8024   89.9832   11.6956 H       1  UNL1        0.1466
     20 C          63.1402   90.7740   13.6013 C.3     1  UNL1        0.1211
     21 C          63.8770   90.8914   14.9025 C.3     1  UNL1        0.1522
     22 O          63.2389   90.4100   16.1719 O.3     1  UNL1       -0.3783
     23 H          62.3580   90.0542   15.9762 H       1  UNL1        0.2109
     24 C          65.2520   91.4901   14.9345 C.ar    1  UNL1        0.0067
     25 C          65.6906   92.2988   16.1192 C.ar    1  UNL1       -0.0018
     26 C          67.0655   92.8976   16.1511 C.ar    1  UNL1        0.0006
     27 C          68.0019   92.6876   14.9983 C.ar    1  UNL1        0.0114
     28 C          67.5633   91.8789   13.8136 C.ar    1  UNL1        0.0574
     29 CL         68.4998   91.6689   12.6607 Cl      1  UNL1       -0.0823
     30 C          66.1884   91.2801   13.7816 C.ar    1  UNL1        0.0095
     31 N          60.0547   90.7051    5.6528 N.pl3   1  UNL1       -0.3073
     32 C          61.2450   91.0594    4.8116 C.3     1  UNL1        0.0922
     33 C          61.0968   92.0202    3.6693 C.3     1  UNL1        0.0374
     34 C          59.7584   92.6267    3.3682 C.3     1  UNL1        0.0611
     35 C          58.5681   92.2725    4.2095 C.3     1  UNL1        0.0374
     36 C          58.7162   91.3116    5.3518 C.3     1  UNL1        0.0922
     37 N          59.6101   93.5876    2.2260 N.3     1  UNL1       -0.2696
     38 C          60.1157   94.9936    2.3582 C.3     1  UNL1        0.1046
     39 C          59.9675   95.9545    1.2160 C.3     1  UNL1        0.1595
     40 O          59.3137   95.5094   -0.0585 O.3     1  UNL1       -0.3508
     41 C          58.8081   94.1034   -0.1907 C.3     1  UNL1        0.1595
     42 C          58.9563   93.1425    0.9515 C.3     1  UNL1        0.1046
@<TRIPOS>BOND
     1     1     2    1
     2     2     3    2
     3     3     4    1
     4     4    31    1
     5    31    32    1
     6    32    33    1
     7    33    34    1
     8    34    37    1
     9    37    38    1
    10    38    39    1
    11    39    40    1
    12    40    41    1
    13    41    42    1
    14    34    35    1
    15    35    36    1
    16     4     5    2
    17     5     6    1
    18     6     7    2
    19     7     8    1
    20     8    11    1
    21    11    12    1
    22    12    18    1
    23    18    20    1
    24    20    21    1
    25    21    22    1
    26    21    24    1
    27    24    25   ar
    28    25    26   ar
    29    26    27   ar
    30    27    28   ar
    31    28    29    1
    32    28    30   ar
    33    12    13    2
    34    13    14    1
    35    14    15    2
    36    15    16    1
    37    16    17    2
    38     8     9    2
    39     9    10    1
    40    10     2    1
    41    36    31    1
    42    10     6    1
    43    42    37    1
    44    16    11    1
    45    30    24   ar
    46    18    19    1
    47    22    23    1
@<TRIPOS>MOLECULE
*****
 42 47 0 0 0
SMALL
GASTEIGER

@<TRIPOS>ATOM
      1 C          56.3187   91.3964    4.9308 C.3     1  UNL1        0.0312
      2 C          57.7990   91.2043    5.0782 C.2     1  UNL1        0.0136
      3 C          58.3409   90.4038    6.2252 C.2     1  UNL1        0.0107
      4 C          59.8211   90.2117    6.3726 C.2     1  UNL1        0.0509
      5 C          60.7597   90.8200    5.3731 C.2     1  UNL1        0.0613
      6 C          60.2178   91.6205    4.2261 C.2     1  UNL1        0.2246
      7 N          60.8931   92.3348    3.0930 N.2     1  UNL1       -0.0378
      8 C          59.8300   92.9683    2.2453 C.2     1  UNL1        0.3605
      9 N          58.4978   92.6456    2.8545 N.2     1  UNL1       -0.0547
     10 C          58.7375   91.8127    4.0787 C.3     1  UNL1        0.2976
     11 C          60.0590   93.7817    1.0060 C.3     1  UNL1        0.2246
     12 C          59.4509   93.3521   -0.2961 C.2     1  UNL1        0.0436
     13 C          59.6799   94.1656   -1.5354 C.2     1  UNL1        0.0288
     14 C          60.5170   95.4087   -1.4726 C.2     1  UNL1        0.0896
     15 N          61.1252   95.8383   -0.1705 N.am    1  UNL1       -0.1770
     16 C          60.8961   95.0248    1.0688 C.2     1  UNL1        0.2627
     17 O          61.5043   95.4545    2.3709 O.2     1  UNL1       -0.2719
     18 N          58.6137   92.1091   -0.3590 N.pl3   1  UNL1       -0.3329
     19 H          59.0052   91.2391   -0.1157 H       1  UNL1        0.1466
     20 C          57.1802   92.1914   -0.7927 C.3     1  UNL1        0.1211
     21 C          56.8436   92.3320   -2.2476 C.3     1  UNL1        0.1522
     22 O          57.3145   91.3004   -3.2295 O.3     1  UNL1       -0.3783
     23 H          57.8187   90.6159   -2.7625 H       1  UNL1        0.2109
     24 C          56.0362   93.5043   -2.7207 C.ar    1  UNL1        0.0067
     25 C          56.1672   93.9831   -4.1362 C.ar    1  UNL1       -0.0018
     26 C          55.3598   95.1553   -4.6092 C.ar    1  UNL1        0.0006
     27 C          54.4212   95.8489   -3.6668 C.ar    1  UNL1        0.0114
     28 C          54.2902   95.3701   -2.2514 C.ar    1  UNL1        0.0574
     29 CL         53.3517   96.0637   -1.3090 Cl      1  UNL1       -0.0823
     30 C          55.0976   94.1979   -1.7783 C.ar    1  UNL1        0.0095
     31 N          60.3630   89.4111    7.5197 N.pl3   1  UNL1       -0.3073
     32 C          61.0913   90.0986    8.6363 C.3     1  UNL1        0.0922
     33 C          61.6332   89.2982    9.7833 C.3     1  UNL1        0.0374
     34 C          61.4467   87.8101    9.8136 C.3     1  UNL1        0.0611
     35 C          60.7183   87.1226    8.6971 C.3     1  UNL1        0.0374
     36 C          60.1765   87.9231    7.5501 C.3     1  UNL1        0.0922
     37 N          61.9885   87.0096   10.9606 N.3     1  UNL1       -0.2696
     38 C          62.8120   87.6797   12.0202 C.3     1  UNL1        0.1046
     39 C          63.3538   86.8792   13.1672 C.3     1  UNL1        0.1595
     40 O          63.0722   85.4085   13.2546 O.3     1  UNL1       -0.3508
     41 C          62.2487   84.7383   12.1950 C.3     1  UNL1        0.1595
     42 C          61.7069   85.5388   11.0480 C.3     1  UNL1        0.1046
@<TRIPOS>BOND
     1     1     2    1
     2     2     3    2
     3     3     4    1
     4     4    31    1
     5    31    32    1
     6    32    33    1
     7    33    34    1
     8    34    37    1
     9    37    38    1
    10    38    39    1
    11    39    40    1
    12    40    41    1
    13    41    42    1
    14    34    35    1
    15    35    36    1
    16     4     5    2
    17     5     6    1
    18     6     7    2
    19     7     8    1
    20     8    11    1
    21    11    12    1
    22    12    18    1
    23    18    20    1
    24    20    21    1
    25    21    22    1
    26    21    24    1
    27    24    25   ar
    28    25    26   ar
    29    26    27   ar
    30    27    28   ar
    31    28    29    1
    32    28    30   ar
    33    12    13    2
    34    13    14    1
    35    14    15    2
    36    15    16    1
    37    16    17    2
    38     8     9    2
    39     9    10    1
    40    10     2    1
    41    36    31    1
    42    10     6    1
    43    42    37    1
    44    16    11    1
    45    30    24   ar
    46    18    19    1
    47    22    23    1
@<TRIPOS>MOLECULE
*****
 42 47 0 0 0
SMALL
GASTEIGER

@<TRIPOS>ATOM
      1 C          56.2625   91.2120    5.0195 C.3     1  UNL1        0.0312
      2 C          57.7479   91.0697    5.1728 C.2     1  UNL1        0.0136
      3 C          58.3114   90.2755    6.3137 C.2     1  UNL1        0.0107
      4 C          59.7967   90.1332    6.4671 C.2     1  UNL1        0.0509
      5 C          60.7186   90.7852    5.4796 C.2     1  UNL1        0.0613
      6 C          60.1551   91.5794    4.3387 C.2     1  UNL1        0.2246
      7 N          60.8108   92.3295    3.2175 N.2     1  UNL1       -0.0378
      8 C          59.7308   92.9354    2.3711 C.2     1  UNL1        0.3605
      9 N          58.4075   92.5598    2.9693 N.2     1  UNL1       -0.0547
     10 C          58.6697   91.7217    4.1853 C.3     1  UNL1        0.2976
     11 C          59.9376   93.7704    1.1423 C.3     1  UNL1        0.2246
     12 C          61.1378   94.6639    1.0359 C.2     1  UNL1        0.0436
     13 C          61.3446   95.4988   -0.1930 C.2     1  UNL1        0.0288
     14 C          60.3513   95.4404   -1.3155 C.2     1  UNL1        0.0896
     15 N          59.1511   94.5469   -1.2091 N.am    1  UNL1       -0.1770
     16 C          58.9443   93.7119    0.0198 C.2     1  UNL1        0.2627
     17 O          57.7442   92.8185    0.1262 O.2     1  UNL1       -0.2719
     18 N          62.1312   94.7224    2.1582 N.pl3   1  UNL1       -0.3329
     19 H          61.8375   94.5626    3.0843 H       1  UNL1        0.1466
     20 C          63.5718   95.0244    1.8698 C.3     1  UNL1        0.1211
     21 C          64.3555   94.1342    0.9515 C.3     1  UNL1        0.1522
     22 O          65.0577   92.9260    1.4968 O.3     1  UNL1       -0.3783
     23 H          64.9045   92.8671    2.4528 H       1  UNL1        0.2109
     24 C          64.4369   94.4521   -0.5122 C.ar    1  UNL1        0.0067
     25 C          65.0680   95.7344   -0.9672 C.ar    1  UNL1       -0.0018
     26 C          65.1494   96.0523   -2.4309 C.ar    1  UNL1        0.0006
     27 C          64.5996   95.0878   -3.4396 C.ar    1  UNL1        0.0114
     28 C          63.9684   93.8055   -2.9845 C.ar    1  UNL1        0.0574
     29 CL         63.4186   92.8410   -3.9932 Cl      1  UNL1       -0.0823
     30 C          63.8870   93.4876   -1.5209 C.ar    1  UNL1        0.0095
     31 N          60.3602   89.3389    7.6080 N.pl3   1  UNL1       -0.3073
     32 C          61.0685   90.0376    8.7307 C.3     1  UNL1        0.0922
     33 C          61.6320   89.2433    9.8715 C.3     1  UNL1        0.0374
     34 C          61.4872   87.7505    9.8898 C.3     1  UNL1        0.0611
     35 C          60.7789   87.0518    8.7672 C.3     1  UNL1        0.0374
     36 C          60.2154   87.8460    7.6263 C.3     1  UNL1        0.0922
     37 N          62.0507   86.9562   11.0306 N.3     1  UNL1       -0.2696
     38 C          62.8610   87.6393   12.0922 C.3     1  UNL1        0.1046
     39 C          63.4245   86.8451   13.2331 C.3     1  UNL1        0.1595
     40 O          63.1778   85.3676   13.3125 O.3     1  UNL1       -0.3508
     41 C          62.3675   84.6845   12.2509 C.3     1  UNL1        0.1595
     42 C          61.8040   85.4787   11.1100 C.3     1  UNL1        0.1046
@<TRIPOS>BOND
     1     1     2    1
     2     2     3    2
     3     3     4    1
     4     4    31    1
     5    31    32    1
     6    32    33    1
     7    33    34    1
     8    34    37    1
     9    37    38    1
    10    38    39    1
    11    39    40    1
    12    40    41    1
    13    41    42    1
    14    34    35    1
    15    35    36    1
    16     4     5    2
    17     5     6    1
    18     6     7    2
    19     7     8    1
    20     8    11    1
    21    11    12    1
    22    12    18    1
    23    18    20    1
    24    20    21    1
    25    21    22    1
    26    21    24    1
    27    24    25   ar
    28    25    26   ar
    29    26    27   ar
    30    27    28   ar
    31    28    29    1
    32    28    30   ar
    33    12    13    2
    34    13    14    1
    35    14    15    2
    36    15    16    1
    37    16    17    2
    38     8     9    2
    39     9    10    1
    40    10     2    1
    41    36    31    1
    42    10     6    1
    43    42    37    1
    44    16    11    1
    45    30    24   ar
    46    18    19    1
    47    22    23    1
@<TRIPOS>MOLECULE
*****
 42 47 0 0 0
SMALL
GASTEIGER

@<TRIPOS>ATOM
      1 C          56.3232   91.3625    4.9706 C.3     1  UNL1        0.0312
      2 C          57.8039   91.1726    5.1171 C.2     1  UNL1        0.0136
      3 C          58.3476   90.3712    6.2626 C.2     1  UNL1        0.0107
      4 C          59.8282   90.1814    6.4091 C.2     1  UNL1        0.0509
      5 C          60.7653   90.7929    5.4101 C.2     1  UNL1        0.0613
      6 C          60.2216   91.5943    4.2646 C.2     1  UNL1        0.2246
      7 N          60.8952   92.3115    3.1323 N.2     1  UNL1       -0.0378
      8 C          59.8308   92.9446    2.2861 C.2     1  UNL1        0.3605
      9 N          58.4993   92.6187    2.8953 N.2     1  UNL1       -0.0547
     10 C          58.7409   91.7842    4.1181 C.3     1  UNL1        0.2976
     11 C          60.0578   93.7603    1.0480 C.3     1  UNL1        0.2246
     12 C          59.1624   93.5823   -0.1422 C.2     1  UNL1        0.0436
     13 C          59.3895   94.3982   -1.3803 C.2     1  UNL1        0.0288
     14 C          60.5121   95.3919   -1.4283 C.2     1  UNL1        0.0896
     15 N          61.4075   95.5699   -0.2381 N.am    1  UNL1       -0.1770
     16 C          61.1804   94.7541    1.0000 C.2     1  UNL1        0.2627
     17 O          62.0758   94.9321    2.1901 O.2     1  UNL1       -0.2719
     18 N          58.0398   92.5886   -0.0943 N.pl3   1  UNL1       -0.3329
     19 H          58.1337   91.7652    0.4371 H       1  UNL1        0.1466
     20 C          56.7742   92.8494   -0.8560 C.3     1  UNL1        0.1211
     21 C          56.5189   92.1387   -2.1519 C.3     1  UNL1        0.1522
     22 O          56.1879   90.6756   -2.1524 O.3     1  UNL1       -0.3783
     23 H          56.1798   90.3457   -1.2403 H       1  UNL1        0.2109
     24 C          56.5945   92.8910   -3.4474 C.ar    1  UNL1        0.0067
     25 C          56.2124   94.3406   -3.4964 C.ar    1  UNL1       -0.0018
     26 C          56.2880   95.0929   -4.7919 C.ar    1  UNL1        0.0006
     27 C          56.7458   94.3955   -6.0385 C.ar    1  UNL1        0.0114
     28 C          57.1279   92.9459   -5.9896 C.ar    1  UNL1        0.0574
     29 CL         57.5856   92.2485   -7.2362 Cl      1  UNL1       -0.0823
     30 C          57.0522   92.1936   -4.6941 C.ar    1  UNL1        0.0095
     31 N          60.3720   89.3799    7.5546 N.pl3   1  UNL1       -0.3073
     32 C          60.2190   87.8878    7.5654 C.3     1  UNL1        0.0922
     33 C          60.7626   87.0864    8.7109 C.3     1  UNL1        0.0374
     34 C          61.4593   87.7771    9.8456 C.3     1  UNL1        0.0611
     35 C          61.6123   89.2692    9.8348 C.3     1  UNL1        0.0374
     36 C          61.0686   90.0707    8.6893 C.3     1  UNL1        0.0922
     37 N          62.0030   86.9758   10.9911 N.3     1  UNL1       -0.2696
     38 C          61.7491   85.4990   11.0607 C.3     1  UNL1        0.1046
     39 C          62.2927   84.6976   12.2061 C.3     1  UNL1        0.1595
     40 O          63.0904   85.3729   13.2821 O.3     1  UNL1       -0.3508
     41 C          63.3444   86.8497   13.2125 C.3     1  UNL1        0.1595
     42 C          62.8007   87.6511   12.0670 C.3     1  UNL1        0.1046
@<TRIPOS>BOND
     1     1     2    1
     2     2     3    2
     3     3     4    1
     4     4    31    1
     5    31    32    1
     6    32    33    1
     7    33    34    1
     8    34    37    1
     9    37    38    1
    10    38    39    1
    11    39    40    1
    12    40    41    1
    13    41    42    1
    14    34    35    1
    15    35    36    1
    16     4     5    2
    17     5     6    1
    18     6     7    2
    19     7     8    1
    20     8    11    1
    21    11    12    1
    22    12    18    1
    23    18    20    1
    24    20    21    1
    25    21    22    1
    26    21    24    1
    27    24    25   ar
    28    25    26   ar
    29    26    27   ar
    30    27    28   ar
    31    28    29    1
    32    28    30   ar
    33    12    13    2
    34    13    14    1
    35    14    15    2
    36    15    16    1
    37    16    17    2
    38     8     9    2
    39     9    10    1
    40    10     2    1
    41    36    31    1
    42    10     6    1
    43    42    37    1
    44    16    11    1
    45    30    24   ar
    46    18    19    1
    47    22    23    1
@<TRIPOS>MOLECULE
*****
 42 47 0 0 0
SMALL
GASTEIGER

@<TRIPOS>ATOM
      1 C          58.7015   86.8172    8.4394 C.3     1  UNL1        0.0312
      2 C          59.5608   88.0214    8.1917 C.2     1  UNL1        0.0136
      3 C          59.3521   88.8510    6.9595 C.2     1  UNL1        0.0107
      4 C          60.2113   90.0552    6.7117 C.2     1  UNL1        0.0509
      5 C          61.2793   90.4300    7.6961 C.2     1  UNL1        0.0613
      6 C          61.4880   89.6004    8.9283 C.2     1  UNL1        0.2246
      7 N          62.4546   89.7228   10.0688 N.2     1  UNL1       -0.0378
      8 C          62.1927   88.5942   11.0214 C.2     1  UNL1        0.3605
      9 N          61.0643   87.7742   10.4697 N.2     1  UNL1       -0.0547
     10 C          60.6288   88.3961    9.1760 C.3     1  UNL1        0.2976
     11 C          62.9298   88.3315   12.3012 C.3     1  UNL1        0.2246
     12 C          63.4738   89.4772   13.1021 C.2     1  UNL1        0.0436
     13 C          64.2109   89.2145   14.3818 C.2     1  UNL1        0.0288
     14 C          64.4040   87.8062   14.8607 C.2     1  UNL1        0.0896
     15 N          63.8600   86.6605   14.0598 N.am    1  UNL1       -0.1770
     16 C          63.1229   86.9232   12.7800 C.2     1  UNL1        0.2627
     17 O          62.5789   85.7775   11.9791 O.2     1  UNL1       -0.2719
     18 N          63.2807   90.8856   12.6233 N.pl3   1  UNL1       -0.3329
     19 H          62.6540   91.4831   13.0917 H       1  UNL1        0.1466
     20 C          64.0425   91.3835   11.4310 C.3     1  UNL1        0.1211
     21 C          65.0578   92.4758   11.5923 C.3     1  UNL1        0.1522
     22 O          64.9762   93.7075   10.7401 O.3     1  UNL1       -0.3783
     23 H          64.2151   93.6376   10.1429 H       1  UNL1        0.2109
     24 C          66.1547   92.3364   12.6059 C.ar    1  UNL1        0.0067
     25 C          67.5295   91.9229   12.1712 C.ar    1  UNL1       -0.0018
     26 C          68.6264   91.7834   13.1848 C.ar    1  UNL1        0.0006
     27 C          68.3485   92.0575   14.6331 C.ar    1  UNL1        0.0114
     28 C          66.9738   92.4711   15.0678 C.ar    1  UNL1        0.0574
     29 CL         66.6960   92.7452   16.5162 Cl      1  UNL1       -0.0823
     30 C          65.8769   92.6105   14.0542 C.ar    1  UNL1        0.0095
     31 N          60.0026   90.8849    5.4795 N.pl3   1  UNL1       -0.3073
     32 C          58.6164   91.2902    5.0742 C.3     1  UNL1        0.0922
     33 C          58.4077   92.1197    3.8420 C.3     1  UNL1        0.0374
     34 C          59.5851   92.5440    3.0152 C.3     1  UNL1        0.0611
     35 C          60.9712   92.1387    3.4205 C.3     1  UNL1        0.0374
     36 C          61.1800   91.3091    4.6527 C.3     1  UNL1        0.0922
     37 N          59.3764   93.3736    1.7831 N.3     1  UNL1       -0.2696
     38 C          58.5828   92.8245    0.6347 C.3     1  UNL1        0.1046
     39 C          58.3741   93.6540   -0.5975 C.3     1  UNL1        0.1595
     40 O          58.9591   95.0326   -0.6814 O.3     1  UNL1       -0.3508
     41 C          59.7527   95.5817    0.4669 C.3     1  UNL1        0.1595
     42 C          59.9614   94.7522    1.6991 C.3     1  UNL1        0.1046
@<TRIPOS>BOND
     1     1     2    1
     2     2     3    2
     3     3     4    1
     4     4    31    1
     5    31    32    1
     6    32    33    1
     7    33    34    1
     8    34    37    1
     9    37    38    1
    10    38    39    1
    11    39    40    1
    12    40    41    1
    13    41    42    1
    14    34    35    1
    15    35    36    1
    16     4     5    2
    17     5     6    1
    18     6     7    2
    19     7     8    1
    20     8    11    1
    21    11    12    1
    22    12    18    1
    23    18    20    1
    24    20    21    1
    25    21    22    1
    26    21    24    1
    27    24    25   ar
    28    25    26   ar
    29    26    27   ar
    30    27    28   ar
    31    28    29    1
    32    28    30   ar
    33    12    13    2
    34    13    14    1
    35    14    15    2
    36    15    16    1
    37    16    17    2
    38     8     9    2
    39     9    10    1
    40    10     2    1
    41    36    31    1
    42    10     6    1
    43    42    37    1
    44    16    11    1
    45    30    24   ar
    46    18    19    1
    47    22    23    1
@<TRIPOS>MOLECULE
*****
 42 47 0 0 0
SMALL
GASTEIGER

@<TRIPOS>ATOM
      1 C          58.6951   86.7119    8.3598 C.3     1  UNL1        0.0312
      2 C          59.5704   87.9134    8.1590 C.2     1  UNL1        0.0136
      3 C          59.3826   88.7850    6.9528 C.2     1  UNL1        0.0107
      4 C          60.2578   89.9864    6.7520 C.2     1  UNL1        0.0509
      5 C          61.3210   90.3164    7.7575 C.2     1  UNL1        0.0613
      6 C          61.5088   89.4447    8.9637 C.2     1  UNL1        0.2246
      7 N          62.4662   89.5186   10.1160 N.2     1  UNL1       -0.0378
      8 C          62.1826   88.3627   11.0290 C.2     1  UNL1        0.3605
      9 N          61.0500   87.5745   10.4409 N.2     1  UNL1       -0.0547
     10 C          60.6335   88.2432    9.1644 C.3     1  UNL1        0.2976
     11 C          62.9048   88.0500   12.3060 C.3     1  UNL1        0.2246
     12 C          62.9794   86.6350   12.7982 C.2     1  UNL1        0.0436
     13 C          63.7017   86.3223   14.0752 C.2     1  UNL1        0.0288
     14 C          64.3493   87.4245   14.8599 C.2     1  UNL1        0.0896
     15 N          64.2748   88.8394   14.3676 N.am    1  UNL1       -0.1770
     16 C          63.5525   89.1521   13.0906 C.2     1  UNL1        0.2627
     17 O          63.4780   90.5671   12.5983 O.2     1  UNL1       -0.2719
     18 N          62.3317   85.5328   12.0136 N.pl3   1  UNL1       -0.3329
     19 H          61.3504   85.4585   11.9870 H       1  UNL1        0.1466
     20 C          63.1792   84.5438   11.2696 C.3     1  UNL1        0.1211
     21 C          63.9272   83.4823   12.0205 C.3     1  UNL1        0.1522
     22 O          65.1833   83.8321   12.7619 O.3     1  UNL1       -0.3783
     23 H          65.3697   84.7779   12.6540 H       1  UNL1        0.2109
     24 C          63.4189   82.0711   12.0300 C.ar    1  UNL1        0.0067
     25 C          62.9700   81.4442   13.3166 C.ar    1  UNL1       -0.0018
     26 C          62.4617   80.0330   13.3261 C.ar    1  UNL1        0.0006
     27 C          62.4025   79.2485   12.0490 C.ar    1  UNL1        0.0114
     28 C          62.8515   79.8754   10.7624 C.ar    1  UNL1        0.0574
     29 CL         62.7922   79.0909    9.4852 Cl      1  UNL1       -0.0823
     30 C          63.3597   81.2866   10.7528 C.ar    1  UNL1        0.0095
     31 N          60.0700   90.8581    5.5457 N.pl3   1  UNL1       -0.3073
     32 C          58.7093   91.3943    5.2124 C.3     1  UNL1        0.0922
     33 C          58.5215   92.2659    4.0062 C.3     1  UNL1        0.0374
     34 C          59.6943   92.6013    3.1332 C.3     1  UNL1        0.0611
     35 C          61.0549   92.0650    3.4665 C.3     1  UNL1        0.0374
     36 C          61.2428   91.1934    4.6727 C.3     1  UNL1        0.0922
     37 N          59.5065   93.4729    1.9270 N.3     1  UNL1       -0.2696
     38 C          58.7718   92.9477    0.7293 C.3     1  UNL1        0.1046
     39 C          58.5840   93.8193   -0.4770 C.3     1  UNL1        0.1595
     40 O          59.1309   95.2160   -0.4856 O.3     1  UNL1       -0.3508
     41 C          59.8656   95.7411    0.7121 C.3     1  UNL1        0.1595
     42 C          60.0534   94.8696    1.9184 C.3     1  UNL1        0.1046
@<TRIPOS>BOND
     1     1     2    1
     2     2     3    2
     3     3     4    1
     4     4    31    1
     5    31    32    1
     6    32    33    1
     7    33    34    1
     8    34    37    1
     9    37    38    1
    10    38    39    1
    11    39    40    1
    12    40    41    1
    13    41    42    1
    14    34    35    1
    15    35    36    1
    16     4     5    2
    17     5     6    1
    18     6     7    2
    19     7     8    1
    20     8    11    1
    21    11    12    1
    22    12    18    1
    23    18    20    1
    24    20    21    1
    25    21    22    1
    26    21    24    1
    27    24    25   ar
    28    25    26   ar
    29    26    27   ar
    30    27    28   ar
    31    28    29    1
    32    28    30   ar
    33    12    13    2
    34    13    14    1
    35    14    15    2
    36    15    16    1
    37    16    17    2
    38     8     9    2
    39     9    10    1
    40    10     2    1
    41    36    31    1
    42    10     6    1
    43    42    37    1
    44    16    11    1
    45    30    24   ar
    46    18    19    1
    47    22    23    1
@<TRIPOS>MOLECULE
*****
 42 47 0 0 0
SMALL
GASTEIGER

@<TRIPOS>ATOM
      1 C          61.7546   89.0599   10.6531 C.3     1  UNL1        0.0312
      2 C          62.4942   88.1021   11.5395 C.2     1  UNL1        0.0136
      3 C          62.4408   86.6291   11.2617 C.2     1  UNL1        0.0107
      4 C          63.1803   85.6714   12.1481 C.2     1  UNL1        0.0509
      5 C          63.9732   86.1867   13.3125 C.2     1  UNL1        0.0613
      6 C          64.0266   87.6597   13.5904 C.2     1  UNL1        0.2246
      7 N          64.7198   88.4555   14.6563 N.2     1  UNL1       -0.0378
      8 C          64.4087   89.9051   14.4285 C.2     1  UNL1        0.3605
      9 N          63.5232   90.0052   13.2219 N.2     1  UNL1       -0.0547
     10 C          63.2871   88.6175   12.7039 C.3     1  UNL1        0.2976
     11 C          64.8973   91.0531   15.2612 C.3     1  UNL1        0.2246
     12 C          66.1727   91.7539   14.8977 C.2     1  UNL1        0.0436
     13 C          66.6613   92.9020   15.7305 C.2     1  UNL1        0.0288
     14 C          65.8744   93.3492   16.9266 C.2     1  UNL1        0.0896
     15 N          64.5990   92.6484   17.2901 N.am    1  UNL1       -0.1770
     16 C          64.1105   91.5004   16.4574 C.2     1  UNL1        0.2627
     17 O          62.8351   90.7996   16.8209 O.2     1  UNL1       -0.2719
     18 N          66.9596   91.3068   13.7015 N.pl3   1  UNL1       -0.3329
     19 H          67.2649   90.3733   13.6341 H       1  UNL1        0.1466
     20 C          67.2814   92.2819   12.6081 C.3     1  UNL1        0.1211
     21 C          66.1828   92.8367   11.7507 C.3     1  UNL1        0.1522
     22 O          64.9207   92.0518   11.5479 O.3     1  UNL1       -0.3783
     23 H          64.9779   91.2158   12.0365 H       1  UNL1        0.2109
     24 C          66.3462   94.1764   11.0961 C.ar    1  UNL1        0.0067
     25 C          66.1279   95.4305   11.8894 C.ar    1  UNL1       -0.0018
     26 C          66.2913   96.7702   11.2347 C.ar    1  UNL1        0.0006
     27 C          66.6732   96.8557    9.7867 C.ar    1  UNL1        0.0114
     28 C          66.8915   95.6016    8.9933 C.ar    1  UNL1        0.0574
     29 CL         67.2733   95.6872    7.5453 Cl      1  UNL1       -0.0823
     30 C          66.7281   94.2619    9.6480 C.ar    1  UNL1        0.0095
     31 N          63.1269   84.1982   11.8702 N.pl3   1  UNL1       -0.3073
     32 C          63.6477   83.6609   10.5702 C.3     1  UNL1        0.0922
     33 C          63.5944   82.1878   10.2923 C.3     1  UNL1        0.0374
     34 C          63.0201   81.2521   11.3144 C.3     1  UNL1        0.0611
     35 C          62.4993   81.7895   12.6144 C.3     1  UNL1        0.0374
     36 C          62.5526   83.2625   12.8923 C.3     1  UNL1        0.0922
     37 N          62.9667   79.7791   11.0366 N.3     1  UNL1       -0.2696
     38 C          63.2448   79.2659    9.6547 C.3     1  UNL1        0.1046
     39 C          63.1914   77.7928    9.3768 C.3     1  UNL1        0.1595
     40 O          62.8599   76.8329   10.4807 O.3     1  UNL1       -0.3508
     41 C          62.5819   77.3461   11.8626 C.3     1  UNL1        0.1595
     42 C          62.6353   78.8191   12.1405 C.3     1  UNL1        0.1046
@<TRIPOS>BOND
     1     1     2    1
     2     2     3    2
     3     3     4    1
     4     4    31    1
     5    31    32    1
     6    32    33    1
     7    33    34    1
     8    34    37    1
     9    37    38    1
    10    38    39    1
    11    39    40    1
    12    40    41    1
    13    41    42    1
    14    34    35    1
    15    35    36    1
    16     4     5    2
    17     5     6    1
    18     6     7    2
    19     7     8    1
    20     8    11    1
    21    11    12    1
    22    12    18    1
    23    18    20    1
    24    20    21    1
    25    21    22    1
    26    21    24    1
    27    24    25   ar
    28    25    26   ar
    29    26    27   ar
    30    27    28   ar
    31    28    29    1
    32    28    30   ar
    33    12    13    2
    34    13    14    1
    35    14    15    2
    36    15    16    1
    37    16    17    2
    38     8     9    2
    39     9    10    1
    40    10     2    1
    41    36    31    1
    42    10     6    1
    43    42    37    1
    44    16    11    1
    45    30    24   ar
    46    18    19    1
    47    22    23    1
@<TRIPOS>MOLECULE
*****
 42 47 0 0 0
SMALL
GASTEIGER

@<TRIPOS>ATOM
      1 C          62.8692   87.7126   17.3610 C.3     1  UNL1        0.0312
      2 C          63.3621   87.7470   15.9447 C.2     1  UNL1        0.0136
      3 C          63.8118   89.0432   15.3384 C.2     1  UNL1        0.0107
      4 C          64.3047   89.0776   13.9222 C.2     1  UNL1        0.0509
      5 C          64.3479   87.8158   13.1122 C.2     1  UNL1        0.0613
      6 C          63.8982   86.5197   13.7185 C.2     1  UNL1        0.2246
      7 N          63.8273   85.1258   13.1689 N.2     1  UNL1       -0.0378
      8 C          63.2905   84.2299   14.2456 C.2     1  UNL1        0.3605
      9 N          63.0297   85.0700   15.4605 N.2     1  UNL1       -0.0547
     10 C          63.4053   86.4852   15.1348 C.3     1  UNL1        0.2976
     11 C          63.0558   82.7530   14.1280 C.3     1  UNL1        0.2246
     12 C          62.2738   82.2077   12.9699 C.2     1  UNL1        0.0436
     13 C          62.0391   80.7308   12.8524 C.2     1  UNL1        0.0288
     14 C          62.5863   79.7993   13.8929 C.2     1  UNL1        0.0896
     15 N          63.3683   80.3445   15.0510 N.am    1  UNL1       -0.1770
     16 C          63.6030   81.8214   15.1685 C.2     1  UNL1        0.2627
     17 O          64.3850   82.3667   16.3266 O.2     1  UNL1       -0.2719
     18 N          61.7265   83.1392   11.9294 N.pl3   1  UNL1       -0.3329
     19 H          60.9620   83.7215   12.1432 H       1  UNL1        0.1466
     20 C          62.3440   83.1837   10.5632 C.3     1  UNL1        0.1211
     21 C          62.7809   84.4947    9.9799 C.3     1  UNL1        0.1522
     22 O          64.1735   84.6506    9.4445 O.3     1  UNL1       -0.3783
     23 H          64.6562   83.8160    9.5513 H       1  UNL1        0.2109
     24 C          61.8254   85.6499    9.9320 C.ar    1  UNL1        0.0067
     25 C          61.8027   86.6514   11.0485 C.ar    1  UNL1       -0.0018
     26 C          60.8471   87.8066   11.0006 C.ar    1  UNL1        0.0006
     27 C          59.9141   87.9604    9.8362 C.ar    1  UNL1        0.0114
     28 C          59.9367   86.9590    8.7197 C.ar    1  UNL1        0.0574
     29 CL         59.0037   87.1128    7.5553 Cl      1  UNL1       -0.0823
     30 C          60.8923   85.8037    8.7676 C.ar    1  UNL1        0.0095
     31 N          64.7545   90.3739   13.3159 N.pl3   1  UNL1       -0.3073
     32 C          64.1094   90.8777   12.0589 C.3     1  UNL1        0.0922
     33 C          64.5591   92.1739   11.4526 C.3     1  UNL1        0.0374
     34 C          65.6540   92.9663   12.1033 C.3     1  UNL1        0.0611
     35 C          66.2991   92.4625   13.3603 C.3     1  UNL1        0.0374
     36 C          65.8494   91.1663   13.9666 C.3     1  UNL1        0.0922
     37 N          66.1037   94.2624   11.4971 N.3     1  UNL1       -0.2696
     38 C          66.6271   94.2914   10.0916 C.3     1  UNL1        0.1046
     39 C          67.0769   95.5876    9.4853 C.3     1  UNL1        0.1595
     40 O          67.0034   96.8548   10.2844 O.3     1  UNL1       -0.3508
     41 C          66.4800   96.8259   11.6899 C.3     1  UNL1        0.1595
     42 C          66.0302   95.5297   12.2962 C.3     1  UNL1        0.1046
@<TRIPOS>BOND
     1     1     2    1
     2     2     3    2
     3     3     4    1
     4     4    31    1
     5    31    32    1
     6    32    33    1
     7    33    34    1
     8    34    37    1
     9    37    38    1
    10    38    39    1
    11    39    40    1
    12    40    41    1
    13    41    42    1
    14    34    35    1
    15    35    36    1
    16     4     5    2
    17     5     6    1
    18     6     7    2
    19     7     8    1
    20     8    11    1
    21    11    12    1
    22    12    18    1
    23    18    20    1
    24    20    21    1
    25    21    22    1
    26    21    24    1
    27    24    25   ar
    28    25    26   ar
    29    26    27   ar
    30    27    28   ar
    31    28    29    1
    32    28    30   ar
    33    12    13    2
    34    13    14    1
    35    14    15    2
    36    15    16    1
    37    16    17    2
    38     8     9    2
    39     9    10    1
    40    10     2    1
    41    36    31    1
    42    10     6    1
    43    42    37    1
    44    16    11    1
    45    30    24   ar
    46    18    19    1
    47    22    23    1
