@<TRIPOS>MOLECULE
*****
 71 79 0 0 0
SMALL
GASTEIGER

@<TRIPOS>ATOM
      1 C          60.9908   96.8559   -0.9207 C.3     1  UNL1        0.1217
      2 N          57.7712   95.0149   -6.3053 N.3     1  UNL1       -0.1862
      3 C          58.9703   94.9306   -7.2024 C.3     1  UNL1        0.1775
      4 C          60.3338   95.2482   -6.6638 C.2     1  UNL1        0.2452
      5 O          61.5330   95.1639   -7.5609 O.2     1  UNL1       -0.2732
      6 N          60.4980   95.6501   -5.2280 N.am    1  UNL1       -0.2541
      7 C          61.8615   95.9677   -4.6893 C.3     1  UNL1        0.1577
      8 C          62.0258   96.3696   -3.2536 C.2     1  UNL1        0.2445
      9 O          63.3892   96.6873   -2.7149 O.2     1  UNL1       -0.2731
     10 N          60.8265   96.4540   -2.3564 N.am    1  UNL1       -0.2705
     11 C          59.4631   96.1363   -2.8951 C.3     1  UNL1        0.1359
     12 C          59.2989   95.7344   -4.3309 C.3     1  UNL1        0.1908
     13 N          57.9354   95.4168   -4.8696 N.am    1  UNL1       -0.1863
     14 C          56.7362   95.5011   -3.9724 C.2     1  UNL1        0.3191
     15 O          56.9005   95.9030   -2.5366 O.2     1  UNL1       -0.2512
     16 N          55.3728   95.1835   -4.5110 N.am    1  UNL1       -0.2836
     17 H          55.2650   94.9197   -5.4534 H       1  UNL1        0.1513
     18 C          56.4077   94.6972   -6.8440 C.3     1  UNL1        0.1188
     19 C          55.8776   92.1591   -6.6805 C.2     1  UNL1       -0.0034
     20 C          56.1533   93.3778   -7.5104 C.2     1  UNL1       -0.0071
     21 C          63.0607   95.8834   -5.5864 C.3     1  UNL1        0.0556
     22 C          63.7312   94.5621   -5.8201 C.ar    1  UNL1       -0.0198
     23 C          64.6579   94.3872   -6.9864 C.ar    1  UNL1       -0.0011
     24 C          65.3284   93.0659   -7.2201 C.ar    1  UNL1        0.0363
     25 C          65.0721   91.9195   -6.2873 C.ar    1  UNL1        0.1337
     26 O          65.7426   90.5982   -6.5209 O.3     1  UNL1       -0.5055
     27 C          64.1453   92.0944   -5.1209 C.ar    1  UNL1        0.0363
     28 C          63.4748   93.4157   -4.8872 C.ar    1  UNL1       -0.0011
     29 H          66.3216   90.4889   -7.2495 H       1  UNL1        0.2922
     30 C          54.1736   95.2678   -3.6139 C.3     1  UNL1        0.1177
     31 C          52.8748   95.7972   -4.1458 C.ar    1  UNL1       -0.0025
     32 C          51.6704   95.8632   -3.2542 C.ar    1  UNL1       -0.0026
     33 C          50.3716   96.3926   -3.7860 C.ar    1  UNL1       -0.0003
     34 C          50.2772   96.8560   -5.2095 C.ar    1  UNL1       -0.0000
     35 C          51.4817   96.7900   -6.1012 C.ar    1  UNL1       -0.0003
     36 C          52.7804   96.2606   -5.5693 C.ar    1  UNL1       -0.0026
     37 C          61.5643   95.8854    0.0690 C.ar    1  UNL1        0.0135
     38 C          63.0495   95.7994    0.2608 C.ar    1  UNL1       -0.0012
     39 C          63.6229   94.8289    1.2504 C.ar    1  UNL1       -0.0002
     40 C          62.7112   93.9445    2.0482 C.ar    1  UNL1        0.0015
     41 C          61.2260   94.0305    1.8563 C.ar    1  UNL1        0.0170
     42 C          60.0871   93.2921    2.4948 C.ar    1  UNL1        0.0186
     43 C          58.8097   93.8063    1.8999 C.ar    1  UNL1        0.0759
     44 N          59.1592   94.8623    0.8937 N.ar    1  UNL1       -0.3242
     45 C          58.1862   95.6428    0.0606 C.3     1  UNL1        0.1305
     46 C          60.6525   95.0009    0.8667 C.ar    1  UNL1        0.0575
     47 C          60.2049   92.2267    3.5442 C.ar    1  UNL1        0.0015
     48 C          59.0286   91.8986    4.4152 C.ar    1  UNL1        0.0002
     49 C          59.1464   90.8332    5.4645 C.ar    1  UNL1        0.0045
     50 C          60.4405   90.0958    5.6427 C.ar    1  UNL1        0.0537
     51 C          61.6167   90.4239    4.7716 C.ar    1  UNL1        0.0045
     52 C          61.4989   91.4893    3.7224 C.ar    1  UNL1        0.0002
     53 C          60.5582   89.0304    6.6920 C.2     1  UNL1        0.2495
     54 O          59.6065   87.8710    6.6936 O.2     1  UNL1       -0.2698
     55 N          61.6276   89.1243    7.7396 N.am    1  UNL1       -0.2804
     56 H          62.2523   89.8853    7.7386 H       1  UNL1        0.1552
     57 C          61.7453   88.0589    8.7889 C.ar    1  UNL1        0.0506
     58 C          62.1926   88.4175   10.1750 C.ar    1  UNL1        0.0159
     59 C          62.3103   87.3522   11.2243 C.ar    1  UNL1        0.0158
     60 C          61.9807   85.9281   10.8875 C.ar    1  UNL1        0.0480
     61 C          61.5334   85.5695    9.5014 C.ar    1  UNL1        0.0158
     62 C          61.4157   86.6349    8.4520 C.ar    1  UNL1        0.0159
     63 N          62.0984   84.8627   11.9367 N.pl3   1  UNL1       -0.3041
     64 C          62.1174   83.4166   11.5384 C.3     1  UNL1        0.1123
     65 C          62.2351   82.3511   12.5875 C.3     1  UNL1        0.1148
     66 N          62.3337   82.7315   14.0351 N.am    1  UNL1       -0.2760
     67 C          62.4514   81.6661   15.0843 C.2     1  UNL1        0.2262
     68 C          62.4704   80.2201   14.6859 C.3     1  UNL1        0.0948
     69 O          62.5501   82.0466   16.5319 O.2     1  UNL1       -0.2749
     70 C          62.3148   84.1776   14.4335 C.3     1  UNL1        0.1148
     71 C          62.1971   85.2431   13.3843 C.3     1  UNL1        0.1123
@<TRIPOS>BOND
     1    19    20    2
     2    20    18    1
     3    18     2    1
     4     2     3    1
     5     3     4    1
     6     4     5    2
     7     4     6   am
     8     6     7    1
     9     7    21    1
    10    21    22    1
    11    22    23   ar
    12    23    24   ar
    13    24    25   ar
    14    25    26    1
    15    25    27   ar
    16    27    28   ar
    17     7     8    1
    18     8     9    2
    19     8    10   am
    20    10     1    1
    21     1    37    1
    22    37    38   ar
    23    38    39   ar
    24    39    40   ar
    25    40    41   ar
    26    41    42   ar
    27    42    47    1
    28    47    48   ar
    29    48    49   ar
    30    49    50   ar
    31    50    53    1
    32    53    54    2
    33    53    55   am
    34    55    57    1
    35    57    58   ar
    36    58    59   ar
    37    59    60   ar
    38    60    63    1
    39    63    64    1
    40    64    65    1
    41    65    66    1
    42    66    67   am
    43    67    68    1
    44    67    69    2
    45    66    70    1
    46    70    71    1
    47    60    61   ar
    48    61    62   ar
    49    50    51   ar
    50    51    52   ar
    51    42    43   ar
    52    43    44   ar
    53    44    45    1
    54    44    46   ar
    55    10    11    1
    56    12    11    1
    57    12    13    1
    58    13    14   am
    59    14    15    2
    60    14    16   am
    61    16    30    1
    62    30    31    1
    63    31    32   ar
    64    32    33   ar
    65    33    34   ar
    66    34    35   ar
    67    35    36   ar
    68    13     2    1
    69    36    31   ar
    70    12     6    1
    71    28    22   ar
    72    46    37   ar
    73    46    41   ar
    74    52    47   ar
    75    62    57   ar
    76    71    63    1
    77    26    29    1
    78    55    56    1
    79    16    17    1
