@<TRIPOS>MOLECULE
*****
 33 34 0 0 0
SMALL
GASTEIGER

@<TRIPOS>ATOM
      1 C          63.1542   85.2219   13.4593 C.3     1  UNL1        0.0197
      2 C          64.2527   85.5792   14.4161 C.3     1  UNL1        0.0187
      3 C          63.9292   86.2837   15.7003 C.3     1  UNL1        0.0722
      4 N          63.7628   87.7743   15.7166 N.3     1  UNL1       -0.2712
      5 C          63.0797   88.4401   16.8743 C.3     1  UNL1        0.0896
      6 C          64.2795   88.5993   14.5754 C.3     1  UNL1        0.0768
      7 C          63.8320   90.0220   14.4154 C.3     1  UNL1        0.0438
      8 C          66.3862   92.9411   12.1341 C.ar    1  UNL1        0.1724
      9 C          65.1540   92.3675   11.4998 C.ar    1  UNL1        0.0397
     10 C          64.3026   91.3944   12.2602 C.ar    1  UNL1       -0.0009
     11 C          64.6834   90.9950   13.6550 C.ar    1  UNL1       -0.0176
     12 C          65.9157   91.5687   14.2893 C.ar    1  UNL1        0.0358
     13 C          66.7671   92.5417   13.5288 C.ar    1  UNL1        0.1721
     14 C          66.7948   94.4058   10.0275 C.3     1  UNL1        0.2526
     15 O          67.2377   93.9142   11.3736 O.3     1  UNL1       -0.4684
     16 O          67.9994   93.1154   14.1632 O.3     1  UNL1       -0.4684
     17 C          68.0044   93.4484   15.6257 C.3     1  UNL1        0.2526
     18 C          63.3008   84.0302   12.5603 C.3     1  UNL1        0.0981
     19 C          62.6941   84.8080   11.4303 C.ar    1  UNL1       -0.0065
     20 C          63.1143   84.5297   10.0175 C.ar    1  UNL1        0.0000
     21 C          62.5076   85.3075    8.8875 C.ar    1  UNL1        0.0398
     22 C          61.4807   86.3636    9.1703 C.ar    1  UNL1        0.1724
     23 C          61.0605   86.6420   10.5831 C.ar    1  UNL1        0.1721
     24 C          61.6672   85.8641   11.7130 C.ar    1  UNL1        0.0367
     25 O          60.8740   87.1415    8.0403 O.3     1  UNL1       -0.4684
     26 C          59.4367   86.9270    7.6688 C.3     1  UNL1        0.2526
     27 O          60.0336   87.6982   10.8659 O.3     1  UNL1       -0.4684
     28 C          60.4555   89.1271   11.0396 C.3     1  UNL1        0.2526
     29 C          63.4474   82.8384   11.6612 C.3     1  UNL1        0.0169
     30 C          64.6095   82.7497   10.7170 C.3     1  UNL1        0.0014
     31 C          62.4319   81.7354   11.7064 C.3     1  UNL1        0.0014
     32 C          63.9075   83.2523   13.6903 C.1     1  UNL1        0.0752
     33 N          64.5142   82.4745   14.8203 N.1     1  UNL1       -0.1956
@<TRIPOS>BOND
     1    14    15    1
     2    15     8    1
     3     8     9   ar
     4     9    10   ar
     5    10    11   ar
     6    11     7    1
     7     7     6    1
     8     6     4    1
     9     4     5    1
    10     4     3    1
    11     3     2    1
    12     2     1    1
    13     1    18    1
    14    18    32    1
    15    32    33    3
    16    18    19    1
    17    19    20   ar
    18    20    21   ar
    19    21    22   ar
    20    22    25    1
    21    25    26    1
    22    22    23   ar
    23    23    27    1
    24    27    28    1
    25    23    24   ar
    26    18    29    1
    27    29    30    1
    28    29    31    1
    29    11    12   ar
    30    12    13   ar
    31    13    16    1
    32    16    17    1
    33    13     8   ar
    34    24    19   ar
@<TRIPOS>MOLECULE
*****
 33 34 0 0 0
SMALL
GASTEIGER

@<TRIPOS>ATOM
      1 C          62.7362   85.6168   11.4163 C.3     1  UNL1        0.0197
      2 C          61.4138   86.3235   11.3767 C.3     1  UNL1        0.0187
      3 C          61.1879   87.4378   10.3983 C.3     1  UNL1        0.0722
      4 N          61.4649   88.8562   10.7998 N.3     1  UNL1       -0.2712
      5 C          60.5053   89.5835   11.6945 C.3     1  UNL1        0.0896
      6 C          62.7015   89.5475   10.3068 C.3     1  UNL1        0.0768
      7 C          62.8504   91.0303   10.4774 C.3     1  UNL1        0.0438
      8 C          66.2971   92.6872   12.8491 C.ar    1  UNL1        0.1724
      9 C          65.2769   91.8147   13.5182 C.ar    1  UNL1        0.0397
     10 C          64.1280   91.2624   12.7277 C.ar    1  UNL1       -0.0009
     11 C          63.9993   91.5826   11.2680 C.ar    1  UNL1       -0.0176
     12 C          65.0195   92.4551   10.5988 C.ar    1  UNL1        0.0358
     13 C          66.1684   93.0075   11.3893 C.ar    1  UNL1        0.1721
     14 C          67.5817   92.9091   15.0964 C.3     1  UNL1        0.2526
     15 O          67.4460   93.2396   13.6396 O.3     1  UNL1       -0.4684
     16 O          67.1886   93.8801   10.7201 O.3     1  UNL1       -0.4684
     17 C          66.8472   95.2972   10.3663 C.3     1  UNL1        0.2526
     18 C          63.3224   85.1955   12.7312 C.3     1  UNL1        0.0981
     19 C          63.1855   83.7564   12.3312 C.ar    1  UNL1       -0.0065
     20 C          63.7461   83.2851   11.0222 C.ar    1  UNL1        0.0000
     21 C          63.6092   81.8460   10.6222 C.ar    1  UNL1        0.0398
     22 C          62.9116   80.8780   11.5312 C.ar    1  UNL1        0.1724
     23 C          62.3510   81.3492   12.8403 C.ar    1  UNL1        0.1721
     24 C          62.4880   82.7884   13.2403 C.ar    1  UNL1        0.0367
     25 O          62.7747   79.4388   11.1312 O.3     1  UNL1       -0.4684
     26 C          62.8189   79.0558    9.6816 C.3     1  UNL1        0.2526
     27 O          61.6535   80.3812   13.7494 O.3     1  UNL1       -0.4684
     28 C          60.2165   80.6014   14.1187 C.3     1  UNL1        0.2526
     29 C          63.9087   84.7743   14.0461 C.3     1  UNL1        0.0169
     30 C          65.3376   84.3244   14.1205 C.3     1  UNL1        0.0014
     31 C          63.0658   84.8030   15.2866 C.3     1  UNL1        0.0014
     32 C          63.4594   86.6347   13.1312 C.1     1  UNL1        0.0752
     33 N          63.5963   88.0739   13.5312 N.1     1  UNL1       -0.1956
@<TRIPOS>BOND
     1    14    15    1
     2    15     8    1
     3     8     9   ar
     4     9    10   ar
     5    10    11   ar
     6    11     7    1
     7     7     6    1
     8     6     4    1
     9     4     5    1
    10     4     3    1
    11     3     2    1
    12     2     1    1
    13     1    18    1
    14    18    32    1
    15    32    33    3
    16    18    19    1
    17    19    20   ar
    18    20    21   ar
    19    21    22   ar
    20    22    25    1
    21    25    26    1
    22    22    23   ar
    23    23    27    1
    24    27    28    1
    25    23    24   ar
    26    18    29    1
    27    29    30    1
    28    29    31    1
    29    11    12   ar
    30    12    13   ar
    31    13    16    1
    32    16    17    1
    33    13     8   ar
    34    24    19   ar
@<TRIPOS>MOLECULE
*****
 33 34 0 0 0
SMALL
GASTEIGER

@<TRIPOS>ATOM
      1 C          64.3640   91.6364   11.9193 C.3     1  UNL1        0.0197
      2 C          63.4552   90.4662   12.1533 C.3     1  UNL1        0.0187
      3 C          62.0601   90.4782   11.6023 C.3     1  UNL1        0.0722
      4 N          61.4997   89.2477   10.9529 N.3     1  UNL1       -0.2712
      5 C          60.1141   88.7847   11.2934 C.3     1  UNL1        0.0896
      6 C          62.3248   88.4801    9.9628 C.3     1  UNL1        0.0768
      7 C          61.8620   87.1367    9.4824 C.3     1  UNL1        0.0438
      8 C          63.4531   83.3902   11.4015 C.ar    1  UNL1        0.1724
      9 C          63.6495   83.6221    9.9326 C.ar    1  UNL1        0.0397
     10 C          63.1192   84.8709    9.2929 C.ar    1  UNL1       -0.0009
     11 C          62.3923   85.8878   10.1221 C.ar    1  UNL1       -0.0176
     12 C          62.1959   85.6559   11.5910 C.ar    1  UNL1        0.0358
     13 C          62.7262   84.4071   12.2306 C.ar    1  UNL1        0.1721
     14 C          63.0449   81.0312   12.4105 C.3     1  UNL1        0.2526
     15 O          63.9834   82.1414   12.0411 O.3     1  UNL1       -0.4684
     16 O          62.5297   84.1752   13.6996 O.3     1  UNL1       -0.4684
     17 C          63.6212   84.5259   14.6668 C.3     1  UNL1        0.2526
     18 C          65.4789   91.9241   12.8806 C.3     1  UNL1        0.0981
     19 C          66.0187   92.9635   11.9435 C.ar    1  UNL1       -0.0065
     20 C          65.8715   94.4194   12.2731 C.ar    1  UNL1        0.0000
     21 C          66.4113   95.4589   11.3360 C.ar    1  UNL1        0.0398
     22 C          67.0983   95.0424   10.0693 C.ar    1  UNL1        0.1724
     23 C          67.2455   93.5866    9.7397 C.ar    1  UNL1        0.1721
     24 C          66.7057   92.5471   10.6769 C.ar    1  UNL1        0.0367
     25 O          67.6381   96.0819    9.1322 O.3     1  UNL1       -0.4684
     26 C          66.8086   96.5504    7.9736 C.3     1  UNL1        0.2526
     27 O          67.9326   93.1700    8.4730 O.3     1  UNL1       -0.4684
     28 C          68.9324   92.0521    8.4947 C.3     1  UNL1        0.2526
     29 C          66.5938   92.2118   13.8420 C.3     1  UNL1        0.0169
     30 C          66.3007   92.8818   15.1517 C.3     1  UNL1        0.0014
     31 C          68.0019   91.8296   13.4936 C.3     1  UNL1        0.0014
     32 C          64.9391   90.8847   13.8178 C.1     1  UNL1        0.0752
     33 N          64.3994   89.8452   14.7549 N.1     1  UNL1       -0.1956
@<TRIPOS>BOND
     1    14    15    1
     2    15     8    1
     3     8     9   ar
     4     9    10   ar
     5    10    11   ar
     6    11     7    1
     7     7     6    1
     8     6     4    1
     9     4     5    1
    10     4     3    1
    11     3     2    1
    12     2     1    1
    13     1    18    1
    14    18    32    1
    15    32    33    3
    16    18    19    1
    17    19    20   ar
    18    20    21   ar
    19    21    22   ar
    20    22    25    1
    21    25    26    1
    22    22    23   ar
    23    23    27    1
    24    27    28    1
    25    23    24   ar
    26    18    29    1
    27    29    30    1
    28    29    31    1
    29    11    12   ar
    30    12    13   ar
    31    13    16    1
    32    16    17    1
    33    13     8   ar
    34    24    19   ar
@<TRIPOS>MOLECULE
*****
 33 34 0 0 0
SMALL
GASTEIGER

@<TRIPOS>ATOM
      1 C          63.2569   85.6855   13.4285 C.3     1  UNL1        0.0197
      2 C          64.2642   86.0035   14.4935 C.3     1  UNL1        0.0187
      3 C          64.5787   87.4320   14.8259 C.3     1  UNL1        0.0722
      4 N          63.6294   88.2327   15.6671 N.3     1  UNL1       -0.2712
      5 C          63.0517   87.6391   16.9177 C.3     1  UNL1        0.0896
      6 C          63.2578   89.6271   15.2577 C.3     1  UNL1        0.0768
      7 C          64.2129   90.7587   15.4971 C.3     1  UNL1        0.0438
      8 C          66.5825   92.4654   12.0733 C.ar    1  UNL1        0.1724
      9 C          67.2259   92.2899   13.4168 C.ar    1  UNL1        0.0397
     10 C          66.4360   91.7210   14.5581 C.ar    1  UNL1       -0.0009
     11 C          65.0027   91.3276   14.3558 C.ar    1  UNL1       -0.0176
     12 C          64.3593   91.5032   13.0123 C.ar    1  UNL1        0.0358
     13 C          65.1492   92.0721   11.8710 C.ar    1  UNL1        0.1721
     14 C          68.1195   92.1196   10.0074 C.3     1  UNL1        0.2526
     15 O          67.3723   93.0343   10.9320 O.3     1  UNL1       -0.4684
     16 O          64.5057   92.2476   10.5274 O.3     1  UNL1       -0.4684
     17 C          63.2829   91.4549   10.1721 C.3     1  UNL1        0.2526
     18 C          63.3065   84.3645   12.7196 C.3     1  UNL1        0.0981
     19 C          62.7029   84.9962   11.5003 C.ar    1  UNL1       -0.0065
     20 C          63.1906   84.6092   10.1357 C.ar    1  UNL1        0.0000
     21 C          62.5870   85.2408    8.9164 C.ar    1  UNL1        0.0398
     22 C          61.4956   86.2595    9.0618 C.ar    1  UNL1        0.1724
     23 C          61.0079   86.6466   10.4264 C.ar    1  UNL1        0.1721
     24 C          61.6116   86.0149   11.6457 C.ar    1  UNL1        0.0367
     25 O          60.8920   86.8912    7.8425 O.3     1  UNL1       -0.4684
     26 C          59.4526   86.6409    7.5027 C.3     1  UNL1        0.2526
     27 O          59.9165   87.6653   10.5718 O.3     1  UNL1       -0.4684
     28 C          60.2447   89.1282   10.5228 C.3     1  UNL1        0.2526
     29 C          63.3562   83.0436   12.0106 C.3     1  UNL1        0.0169
     30 C          62.2076   82.0860   12.1275 C.3     1  UNL1        0.0014
     31 C          64.5546   82.6802   11.1848 C.3     1  UNL1        0.0014
     32 C          63.9102   83.7329   13.9388 C.1     1  UNL1        0.0752
     33 N          64.5138   83.1012   15.1581 N.1     1  UNL1       -0.1956
@<TRIPOS>BOND
     1    14    15    1
     2    15     8    1
     3     8     9   ar
     4     9    10   ar
     5    10    11   ar
     6    11     7    1
     7     7     6    1
     8     6     4    1
     9     4     5    1
    10     4     3    1
    11     3     2    1
    12     2     1    1
    13     1    18    1
    14    18    32    1
    15    32    33    3
    16    18    19    1
    17    19    20   ar
    18    20    21   ar
    19    21    22   ar
    20    22    25    1
    21    25    26    1
    22    22    23   ar
    23    23    27    1
    24    27    28    1
    25    23    24   ar
    26    18    29    1
    27    29    30    1
    28    29    31    1
    29    11    12   ar
    30    12    13   ar
    31    13    16    1
    32    16    17    1
    33    13     8   ar
    34    24    19   ar
@<TRIPOS>MOLECULE
*****
 33 34 0 0 0
SMALL
GASTEIGER

@<TRIPOS>ATOM
      1 C          63.7776   90.1714   12.5844 C.3     1  UNL1        0.0197
      2 C          62.5564   90.9046   12.1143 C.3     1  UNL1        0.0187
      3 C          61.9560   90.5823   10.7780 C.3     1  UNL1        0.0722
      4 N          60.5922   89.9630   10.6983 N.3     1  UNL1       -0.2712
      5 C          59.6881   89.9833   11.8951 C.3     1  UNL1        0.0896
      6 C          60.1323   89.3235    9.4218 C.3     1  UNL1        0.0768
      7 C          59.7603   87.8706    9.4024 C.3     1  UNL1        0.0438
      8 C          62.9722   84.7232    9.5673 C.ar    1  UNL1        0.1724
      9 C          62.4469   85.3259   10.8364 C.ar    1  UNL1        0.0397
     10 C          61.3763   86.3750   10.7814 C.ar    1  UNL1       -0.0009
     11 C          60.8309   86.8214    9.4574 C.ar    1  UNL1       -0.0176
     12 C          61.3562   86.2187    8.1882 C.ar    1  UNL1        0.0358
     13 C          62.4269   85.1696    8.2432 C.ar    1  UNL1        0.1721
     14 C          64.3283   82.9604   10.9104 C.3     1  UNL1        0.2526
     15 O          64.0429   83.6740    9.6223 O.3     1  UNL1       -0.4684
     16 O          62.9522   84.5668    6.9740 O.3     1  UNL1       -0.4684
     17 C          62.0303   84.3439    5.8119 C.3     1  UNL1        0.2526
     18 C          64.6393   90.7623   13.6607 C.3     1  UNL1        0.0981
     19 C          64.2369   89.6559   14.5902 C.ar    1  UNL1       -0.0065
     20 C          63.4516   89.9663   15.8299 C.ar    1  UNL1        0.0000
     21 C          63.0492   88.8599   16.7594 C.ar    1  UNL1        0.0398
     22 C          63.4322   87.4432   16.4493 C.ar    1  UNL1        0.1724
     23 C          64.2176   87.1329   15.2097 C.ar    1  UNL1        0.1721
     24 C          64.6200   88.2392   14.2801 C.ar    1  UNL1        0.0367
     25 O          63.0299   86.3368   17.3789 O.3     1  UNL1       -0.4684
     26 C          62.6488   86.6489   18.7957 C.3     1  UNL1        0.2526
     27 O          64.6007   85.7161   14.8995 O.3     1  UNL1       -0.4684
     28 C          63.6145   84.8004   14.2369 C.3     1  UNL1        0.2526
     29 C          65.5010   91.3532   14.7369 C.3     1  UNL1        0.0169
     30 C          64.8826   92.1872   15.8195 C.3     1  UNL1        0.0014
     31 C          66.9812   91.1100   14.7306 C.3     1  UNL1        0.0014
     32 C          65.0417   91.8687   12.7311 C.1     1  UNL1        0.0752
     33 N          65.4440   92.9750   11.8016 N.1     1  UNL1       -0.1956
@<TRIPOS>BOND
     1    14    15    1
     2    15     8    1
     3     8     9   ar
     4     9    10   ar
     5    10    11   ar
     6    11     7    1
     7     7     6    1
     8     6     4    1
     9     4     5    1
    10     4     3    1
    11     3     2    1
    12     2     1    1
    13     1    18    1
    14    18    32    1
    15    32    33    3
    16    18    19    1
    17    19    20   ar
    18    20    21   ar
    19    21    22   ar
    20    22    25    1
    21    25    26    1
    22    22    23   ar
    23    23    27    1
    24    27    28    1
    25    23    24   ar
    26    18    29    1
    27    29    30    1
    28    29    31    1
    29    11    12   ar
    30    12    13   ar
    31    13    16    1
    32    16    17    1
    33    13     8   ar
    34    24    19   ar
@<TRIPOS>MOLECULE
*****
 33 34 0 0 0
SMALL
GASTEIGER

@<TRIPOS>ATOM
      1 C          62.3818   86.4295   11.1354 C.3     1  UNL1        0.0197
      2 C          60.9385   86.6520   10.7931 C.3     1  UNL1        0.0187
      3 C          60.4926   87.9761   10.2474 C.3     1  UNL1        0.0722
      4 N          60.2871   89.1381   11.1734 N.3     1  UNL1       -0.2712
      5 C          59.2339   89.0706   12.2394 C.3     1  UNL1        0.0896
      6 C          61.1348   90.3677   11.0335 C.3     1  UNL1        0.0768
      7 C          62.5509   90.2517   10.5528 C.3     1  UNL1        0.0438
      8 C          65.7942   92.6907   12.4976 C.ar    1  UNL1        0.1724
      9 C          65.0101   91.7025   13.3091 C.ar    1  UNL1        0.0397
     10 C          63.9290   90.8895   12.6608 C.ar    1  UNL1       -0.0009
     11 C          63.6320   91.0647   11.2010 C.ar    1  UNL1       -0.0176
     12 C          64.4161   92.0529   10.3895 C.ar    1  UNL1        0.0358
     13 C          65.4972   92.8659   11.0378 C.ar    1  UNL1        0.1721
     14 C          67.2945   93.2063   14.5550 C.3     1  UNL1        0.2526
     15 O          66.8753   93.5037   13.1459 O.3     1  UNL1       -0.4684
     16 O          66.2813   93.8541   10.2262 O.3     1  UNL1       -0.4684
     17 C          67.5480   93.4281    9.5452 C.3     1  UNL1        0.2526
     18 C          62.9244   85.0340   11.2273 C.3     1  UNL1        0.0981
     19 C          63.0848   85.1941   12.7101 C.ar    1  UNL1       -0.0065
     20 C          62.6101   84.1143   13.6367 C.ar    1  UNL1        0.0000
     21 C          62.7705   84.2743   15.1195 C.ar    1  UNL1        0.0398
     22 C          63.4057   85.5141   15.6757 C.ar    1  UNL1        0.1724
     23 C          63.8804   86.5939   14.7491 C.ar    1  UNL1        0.1721
     24 C          63.7200   86.4339   13.2663 C.ar    1  UNL1        0.0367
     25 O          63.5661   85.6741   17.1584 O.3     1  UNL1       -0.4684
     26 C          62.5660   86.4742   17.9390 C.3     1  UNL1        0.2526
     27 O          64.5156   87.8338   15.3052 O.3     1  UNL1       -0.4684
     28 C          63.6611   89.0011   15.7015 C.3     1  UNL1        0.2526
     29 C          63.4669   83.6386   11.3192 C.3     1  UNL1        0.0169
     30 C          64.9418   83.4163   11.4773 C.3     1  UNL1        0.0014
     31 C          62.5344   82.4655   11.2529 C.3     1  UNL1        0.0014
     32 C          62.7639   84.8740    9.7445 C.1     1  UNL1        0.0752
     33 N          62.6035   84.7140    8.2617 N.1     1  UNL1       -0.1956
@<TRIPOS>BOND
     1    14    15    1
     2    15     8    1
     3     8     9   ar
     4     9    10   ar
     5    10    11   ar
     6    11     7    1
     7     7     6    1
     8     6     4    1
     9     4     5    1
    10     4     3    1
    11     3     2    1
    12     2     1    1
    13     1    18    1
    14    18    32    1
    15    32    33    3
    16    18    19    1
    17    19    20   ar
    18    20    21   ar
    19    21    22   ar
    20    22    25    1
    21    25    26    1
    22    22    23   ar
    23    23    27    1
    24    27    28    1
    25    23    24   ar
    26    18    29    1
    27    29    30    1
    28    29    31    1
    29    11    12   ar
    30    12    13   ar
    31    13    16    1
    32    16    17    1
    33    13     8   ar
    34    24    19   ar
@<TRIPOS>MOLECULE
*****
 33 34 0 0 0
SMALL
GASTEIGER

@<TRIPOS>ATOM
      1 C          60.6773   87.0439   10.8143 C.3     1  UNL1        0.0197
      2 C          60.0698   88.4131   10.7367 C.3     1  UNL1        0.0187
      3 C          60.7053   89.5582   11.4681 C.3     1  UNL1        0.0722
      4 N          62.1662   89.8458   11.2866 N.3     1  UNL1       -0.2712
      5 C          62.6387   90.5927   10.0745 C.3     1  UNL1        0.0896
      6 C          63.1548   89.3864   12.3170 C.3     1  UNL1        0.0768
      7 C          63.1939   90.0443   13.6644 C.3     1  UNL1        0.0438
      8 C          66.4875   92.9455   14.6571 C.ar    1  UNL1        0.1724
      9 C          65.7778   92.2118   15.7562 C.ar    1  UNL1        0.0397
     10 C          64.6799   91.2448   15.4253 C.ar    1  UNL1       -0.0009
     11 C          64.2918   91.0114   13.9953 C.ar    1  UNL1       -0.0176
     12 C          65.0015   91.7450   12.8962 C.ar    1  UNL1        0.0358
     13 C          66.0994   92.7121   13.2271 C.ar    1  UNL1        0.1721
     14 C          68.7990   93.4429   15.7339 C.3     1  UNL1        0.2526
     15 O          67.5854   93.9126   14.9880 O.3     1  UNL1       -0.4684
     16 O          66.8091   93.4458   12.1280 O.3     1  UNL1       -0.4684
     17 C          66.1962   94.6778   11.5311 C.3     1  UNL1        0.2526
     18 C          61.3350   86.4457    9.6061 C.3     1  UNL1        0.0981
     19 C          62.1039   85.5080   10.4890 C.ar    1  UNL1       -0.0065
     20 C          62.7055   84.2601    9.9140 C.ar    1  UNL1        0.0000
     21 C          63.4745   83.3224   10.7968 C.ar    1  UNL1        0.0398
     22 C          63.6419   83.6327   12.2548 C.ar    1  UNL1        0.1724
     23 C          63.0404   84.8807   12.8298 C.ar    1  UNL1        0.1721
     24 C          62.2714   85.8183   11.9470 C.ar    1  UNL1        0.0367
     25 O          64.4109   82.6951   13.1377 O.3     1  UNL1       -0.4684
     26 C          63.7668   81.4348   13.6345 C.3     1  UNL1        0.2526
     27 O          63.2078   85.1910   14.2879 O.3     1  UNL1       -0.4684
     28 C          64.4964   85.7739   14.7874 C.3     1  UNL1        0.2526
     29 C          61.9926   85.8474    8.3980 C.3     1  UNL1        0.0169
     30 C          61.1571   85.2098    7.3278 C.3     1  UNL1        0.0014
     31 C          63.4858   85.8868    8.2601 C.3     1  UNL1        0.0014
     32 C          60.5660   87.3833    8.7233 C.1     1  UNL1        0.0752
     33 N          59.7970   88.3210    7.8404 N.1     1  UNL1       -0.1956
@<TRIPOS>BOND
     1    14    15    1
     2    15     8    1
     3     8     9   ar
     4     9    10   ar
     5    10    11   ar
     6    11     7    1
     7     7     6    1
     8     6     4    1
     9     4     5    1
    10     4     3    1
    11     3     2    1
    12     2     1    1
    13     1    18    1
    14    18    32    1
    15    32    33    3
    16    18    19    1
    17    19    20   ar
    18    20    21   ar
    19    21    22   ar
    20    22    25    1
    21    25    26    1
    22    22    23   ar
    23    23    27    1
    24    27    28    1
    25    23    24   ar
    26    18    29    1
    27    29    30    1
    28    29    31    1
    29    11    12   ar
    30    12    13   ar
    31    13    16    1
    32    16    17    1
    33    13     8   ar
    34    24    19   ar
@<TRIPOS>MOLECULE
*****
 33 34 0 0 0
SMALL
GASTEIGER

@<TRIPOS>ATOM
      1 C          62.3210   86.1596   10.5511 C.3     1  UNL1        0.0197
      2 C          60.9356   86.3317   10.0024 C.3     1  UNL1        0.0187
      3 C          60.1447   87.5620   10.3351 C.3     1  UNL1        0.0722
      4 N          60.3837   88.8348    9.5782 N.3     1  UNL1       -0.2712
      5 C          59.8375   88.9960    8.1904 C.3     1  UNL1        0.0896
      6 C          61.1689   89.9463   10.2089 C.3     1  UNL1        0.0768
      7 C          62.6683   89.9129   10.1847 C.3     1  UNL1        0.0438
      8 C          65.0088   91.3533   13.7481 C.ar    1  UNL1        0.1724
      9 C          64.2372   90.0694   13.8267 C.ar    1  UNL1        0.0397
     10 C          63.4571   89.5893   12.6389 C.ar    1  UNL1       -0.0009
     11 C          63.4485   90.3931   11.3725 C.ar    1  UNL1       -0.0176
     12 C          64.2200   91.6770   11.2939 C.ar    1  UNL1        0.0358
     13 C          65.0002   92.1571   12.4817 C.ar    1  UNL1        0.1721
     14 C          67.2715   91.6142   14.9979 C.3     1  UNL1        0.2526
     15 O          65.7889   91.8334   14.9359 O.3     1  UNL1       -0.4684
     16 O          65.7718   93.4411   12.4031 O.3     1  UNL1       -0.4684
     17 C          65.9860   94.1073   11.0764 C.3     1  UNL1        0.2526
     18 C          62.9720   84.8083   10.5339 C.3     1  UNL1        0.0981
     19 C          62.9994   84.8025   12.0337 C.ar    1  UNL1       -0.0065
     20 C          63.4792   86.0121   12.7797 C.ar    1  UNL1        0.0000
     21 C          63.5067   86.0062   14.2794 C.ar    1  UNL1        0.0398
     22 C          63.0544   84.7908   15.0331 C.ar    1  UNL1        0.1724
     23 C          62.5746   83.5812   14.2871 C.ar    1  UNL1        0.1721
     24 C          62.5471   83.5870   12.7873 C.ar    1  UNL1        0.0367
     25 O          63.0819   84.7849   16.5329 O.3     1  UNL1       -0.4684
     26 C          62.7423   86.0320   17.2941 C.3     1  UNL1        0.2526
     27 O          62.1223   82.3656   15.0408 O.3     1  UNL1       -0.4684
     28 C          61.6202   81.1648   14.2953 C.3     1  UNL1        0.2526
     29 C          63.6229   83.4570   10.5167 C.3     1  UNL1        0.0169
     30 C          62.8473   82.2566   10.0613 C.3     1  UNL1        0.0014
     31 C          65.0496   83.3062   10.9550 C.3     1  UNL1        0.0014
     32 C          62.9445   84.8141    9.0342 C.1     1  UNL1        0.0752
     33 N          62.9170   84.8200    7.5344 N.1     1  UNL1       -0.1956
@<TRIPOS>BOND
     1    14    15    1
     2    15     8    1
     3     8     9   ar
     4     9    10   ar
     5    10    11   ar
     6    11     7    1
     7     7     6    1
     8     6     4    1
     9     4     5    1
    10     4     3    1
    11     3     2    1
    12     2     1    1
    13     1    18    1
    14    18    32    1
    15    32    33    3
    16    18    19    1
    17    19    20   ar
    18    20    21   ar
    19    21    22   ar
    20    22    25    1
    21    25    26    1
    22    22    23   ar
    23    23    27    1
    24    27    28    1
    25    23    24   ar
    26    18    29    1
    27    29    30    1
    28    29    31    1
    29    11    12   ar
    30    12    13   ar
    31    13    16    1
    32    16    17    1
    33    13     8   ar
    34    24    19   ar
@<TRIPOS>MOLECULE
*****
 33 34 0 0 0
SMALL
GASTEIGER

@<TRIPOS>ATOM
      1 C          63.3343   83.9929   11.5814 C.3     1  UNL1        0.0197
      2 C          62.1689   84.8804   11.2592 C.3     1  UNL1        0.0187
      3 C          62.2305   85.7989   10.0749 C.3     1  UNL1        0.0722
      4 N          61.8468   87.2413   10.2237 N.3     1  UNL1       -0.2712
      5 C          60.8593   87.8563    9.2767 C.3     1  UNL1        0.0896
      6 C          62.4507   88.0689   11.3194 C.3     1  UNL1        0.0768
      7 C          62.0648   89.5105   11.4700 C.3     1  UNL1        0.0438
      8 C          65.2518   92.6698   11.8045 C.ar    1  UNL1        0.1724
      9 C          64.6336   92.3662   10.4720 C.ar    1  UNL1        0.0397
     10 C          63.5712   91.3132   10.3605 C.ar    1  UNL1       -0.0009
     11 C          63.1271   90.5636   11.5815 C.ar    1  UNL1       -0.0176
     12 C          63.7454   90.8671   12.9140 C.ar    1  UNL1        0.0358
     13 C          64.8077   91.9202   13.0255 C.ar    1  UNL1        0.1721
     14 C          66.4774   94.7418   10.8274 C.3     1  UNL1        0.2526
     15 O          66.3142   93.7228   11.9160 O.3     1  UNL1       -0.4684
     16 O          65.4260   92.2237   14.3581 O.3     1  UNL1       -0.4684
     17 C          66.7141   91.5653   14.7546 C.3     1  UNL1        0.2526
     18 C          63.1411   82.7888   12.4548 C.3     1  UNL1        0.0981
     19 C          63.1758   83.6656   13.6714 C.ar    1  UNL1       -0.0065
     20 C          62.2901   83.3589   14.8424 C.ar    1  UNL1        0.0000
     21 C          62.3248   84.2358   16.0589 C.ar    1  UNL1        0.0398
     22 C          63.2452   85.4193   16.1044 C.ar    1  UNL1        0.1724
     23 C          64.1310   85.7259   14.9334 C.ar    1  UNL1        0.1721
     24 C          64.0963   84.8491   13.7169 C.ar    1  UNL1        0.0367
     25 O          63.2799   86.2961   17.3210 O.3     1  UNL1       -0.4684
     26 C          62.7005   87.6785   17.2659 C.3     1  UNL1        0.2526
     27 O          65.0515   86.9094   14.9788 O.3     1  UNL1       -0.4684
     28 C          64.5518   88.2642   14.5729 C.3     1  UNL1        0.2526
     29 C          62.9479   81.5847   13.3282 C.3     1  UNL1        0.0169
     30 C          61.5699   81.0390   13.5592 C.3     1  UNL1        0.0014
     31 C          64.1328   80.9262   13.9706 C.3     1  UNL1        0.0014
     32 C          63.1064   81.9119   11.2383 C.1     1  UNL1        0.0752
     33 N          63.0717   81.0351   10.0218 N.1     1  UNL1       -0.1956
@<TRIPOS>BOND
     1    14    15    1
     2    15     8    1
     3     8     9   ar
     4     9    10   ar
     5    10    11   ar
     6    11     7    1
     7     7     6    1
     8     6     4    1
     9     4     5    1
    10     4     3    1
    11     3     2    1
    12     2     1    1
    13     1    18    1
    14    18    32    1
    15    32    33    3
    16    18    19    1
    17    19    20   ar
    18    20    21   ar
    19    21    22   ar
    20    22    25    1
    21    25    26    1
    22    22    23   ar
    23    23    27    1
    24    27    28    1
    25    23    24   ar
    26    18    29    1
    27    29    30    1
    28    29    31    1
    29    11    12   ar
    30    12    13   ar
    31    13    16    1
    32    16    17    1
    33    13     8   ar
    34    24    19   ar
