@<TRIPOS>MOLECULE
*****
 28 31 0 0 0
SMALL
GASTEIGER

@<TRIPOS>ATOM
      1 C          61.7080   87.4510   10.9651 C.2     1  UNL1        0.0069
      2 C          62.5104   86.3657   11.6197 C.ar    1  UNL1        0.0413
      3 C          63.0937   86.5836   12.9844 C.ar    1  UNL1        0.0400
      4 C          63.8961   85.4984   13.6389 C.ar    1  UNL1        0.1386
      5 C          64.1152   84.1953   12.9289 C.ar    1  UNL1        0.0363
      6 C          63.5318   83.9775   11.5643 C.ar    1  UNL1        0.0241
      7 C          63.7508   82.6745   10.8542 C.3     1  UNL1        0.0350
      8 C          62.7294   85.0628   10.9097 C.ar    1  UNL1        0.1888
      9 N          62.1460   84.8450    9.5450 N.2     1  UNL1       -0.0363
     10 C          61.3436   85.9302    8.8904 C.2     1  UNL1        0.3865
     11 N          60.6504   86.0038    7.5623 N.2     1  UNL1        0.0818
     12 N          60.0030   87.3524    7.4515 N.2     1  UNL1       -0.0421
     13 C          60.2960   88.1122    8.7112 C.2     1  UNL1        0.0990
     14 C          59.8405   89.5062    9.0262 C.3     1  UNL1        0.0523
     15 C          61.1246   87.2332    9.6005 C.3     1  UNL1        0.1749
     16 C          61.4890   88.7540   11.6752 C.3     1  UNL1        0.1521
     17 O          60.2066   88.9994   12.4138 O.3     1  UNL1       -0.3759
     18 H          59.6330   88.2213   12.3331 H       1  UNL1        0.2112
     19 C          64.6789   91.9268   11.5899 C.ar    1  UNL1        0.1387
     20 C          63.9166   91.5961   10.3412 C.ar    1  UNL1        0.0367
     21 C          62.8532   90.5384   10.3696 C.ar    1  UNL1        0.0015
     22 C          62.5523   89.8116   11.6468 C.ar    1  UNL1        0.0083
     23 C          63.3147   90.1423   12.8956 C.ar    1  UNL1        0.0015
     24 C          64.3780   91.1999   12.8671 C.ar    1  UNL1        0.0367
     25 C          66.3214   93.5003   12.8454 C.3     1  UNL1        0.2525
     26 O          65.7423   92.9845   11.5615 O.3     1  UNL1       -0.4714
     27 O          64.4795   85.7161   15.0036 O.3     1  UNL1       -0.4714
     28 C          63.5922   85.6825   16.2127 C.3     1  UNL1        0.2525
@<TRIPOS>BOND
     1    25    26    1
     2    26    19    1
     3    19    20   ar
     4    20    21   ar
     5    21    22   ar
     6    22    16    1
     7    16    17    1
     8    16     1    1
     9     1     2    2
    10     2     3   ar
    11     3     4   ar
    12     4    27    1
    13    27    28    1
    14     4     5   ar
    15     5     6   ar
    16     6     7    1
    17     6     8   ar
    18     8     9    2
    19     9    10    1
    20    10    11    2
    21    11    12    1
    22    12    13    2
    23    13    14    1
    24    13    15    1
    25    22    23   ar
    26    23    24   ar
    27    24    19   ar
    28    15     1    1
    29     8     2   ar
    30    15    10    1
    31    17    18    1
@<TRIPOS>MOLECULE
*****
 28 31 0 0 0
SMALL
GASTEIGER

@<TRIPOS>ATOM
      1 C          63.3557   83.9976   12.8018 C.2     1  UNL1        0.0069
      2 C          63.4657   85.1074   13.8049 C.ar    1  UNL1        0.0413
      3 C          63.9855   86.4500   13.3839 C.ar    1  UNL1        0.0400
      4 C          64.0954   87.5598   14.3870 C.ar    1  UNL1        0.1386
      5 C          63.6856   87.3271   15.8111 C.ar    1  UNL1        0.0363
      6 C          63.1658   85.9844   16.2320 C.ar    1  UNL1        0.0241
      7 C          62.7559   85.7516   17.6560 C.3     1  UNL1        0.0350
      8 C          63.0558   84.8746   15.2288 C.ar    1  UNL1        0.1888
      9 N          62.5360   83.5319   15.6498 N.2     1  UNL1       -0.0363
     10 C          62.4261   82.4221   14.6467 C.2     1  UNL1        0.3865
     11 N          61.9536   81.0036   14.7671 N.2     1  UNL1        0.0818
     12 N          62.0715   80.3597   13.4174 N.2     1  UNL1       -0.0421
     13 C          62.6168   81.3803   12.4629 C.2     1  UNL1        0.0990
     14 C          62.8942   81.1641   11.0048 C.3     1  UNL1        0.0523
     15 C          62.8359   82.6550   13.2227 C.3     1  UNL1        0.1749
     16 C          63.7656   84.2304   11.3777 C.3     1  UNL1        0.1521
     17 O          65.0976   83.7415   10.8911 O.3     1  UNL1       -0.3759
     18 H          65.5651   83.3001   11.6175 H       1  UNL1        0.2112
     19 C          60.9991   86.3955    8.5654 C.ar    1  UNL1        0.1387
     20 C          60.7508   86.4400   10.0440 C.ar    1  UNL1        0.0367
     21 C          61.6729   85.7183   10.9815 C.ar    1  UNL1        0.0015
     22 C          62.8434   84.9521   10.4403 C.ar    1  UNL1        0.0083
     23 C          63.0919   84.9076    8.9617 C.ar    1  UNL1        0.0015
     24 C          62.1697   85.6293    8.0242 C.ar    1  UNL1        0.0367
     25 C          59.6672   88.5305    7.9190 C.3     1  UNL1        0.2525
     26 O          60.0770   87.1172    7.6279 O.3     1  UNL1       -0.4714
     27 O          64.6152   88.9024   13.9661 O.3     1  UNL1       -0.4714
     28 C          63.6617   90.0373   13.7358 C.3     1  UNL1        0.2525
@<TRIPOS>BOND
     1    25    26    1
     2    26    19    1
     3    19    20   ar
     4    20    21   ar
     5    21    22   ar
     6    22    16    1
     7    16    17    1
     8    16     1    1
     9     1     2    2
    10     2     3   ar
    11     3     4   ar
    12     4    27    1
    13    27    28    1
    14     4     5   ar
    15     5     6   ar
    16     6     7    1
    17     6     8   ar
    18     8     9    2
    19     9    10    1
    20    10    11    2
    21    11    12    1
    22    12    13    2
    23    13    14    1
    24    13    15    1
    25    22    23   ar
    26    23    24   ar
    27    24    19   ar
    28    15     1    1
    29     8     2   ar
    30    15    10    1
    31    17    18    1
@<TRIPOS>MOLECULE
*****
 28 31 0 0 0
SMALL
GASTEIGER

@<TRIPOS>ATOM
      1 C          61.8054   86.5008   10.5997 C.2     1  UNL1        0.0069
      2 C          62.6735   85.5562   11.3770 C.ar    1  UNL1        0.0413
      3 C          63.0455   85.8741   12.7950 C.ar    1  UNL1        0.0400
      4 C          63.9135   84.9295   13.5723 C.ar    1  UNL1        0.1386
      5 C          64.4096   83.6671   12.9317 C.ar    1  UNL1        0.0363
      6 C          64.0376   83.3493   11.5138 C.ar    1  UNL1        0.0241
      7 C          64.5336   82.0870   10.8731 C.3     1  UNL1        0.0350
      8 C          63.1695   84.2940   10.7364 C.ar    1  UNL1        0.1888
      9 N          62.7974   83.9761    9.3184 N.2     1  UNL1       -0.0363
     10 C          61.9294   84.9207    8.5411 C.2     1  UNL1        0.3865
     11 N          61.4018   84.8747    7.1377 N.2     1  UNL1        0.0818
     12 N          60.5796   86.1087    6.9110 N.2     1  UNL1       -0.0421
     13 C          60.5992   86.9173    8.1743 C.2     1  UNL1        0.0990
     14 C          59.9061   88.2297    8.3919 C.3     1  UNL1        0.0523
     15 C          61.4334   86.1831    9.1817 C.3     1  UNL1        0.1749
     16 C          61.3094   87.7632   11.2403 C.3     1  UNL1        0.1521
     17 O          59.9194   87.8236   11.8011 O.3     1  UNL1       -0.3759
     18 H          59.4797   86.9693   11.6683 H       1  UNL1        0.2112
     19 C          63.9911   91.3689   11.4801 C.ar    1  UNL1        0.1387
     20 C          63.7455   90.5343   12.7019 C.ar    1  UNL1        0.0367
     21 C          62.8516   89.3323   12.6221 C.ar    1  UNL1        0.0015
     22 C          62.2033   88.9651   11.3202 C.ar    1  UNL1        0.0083
     23 C          62.4488   89.7997   10.0982 C.ar    1  UNL1        0.0015
     24 C          63.3427   91.0016   10.1782 C.ar    1  UNL1        0.0367
     25 C          65.8873   92.8333   10.4753 C.3     1  UNL1        0.2525
     26 O          64.8850   92.5708   11.5599 O.3     1  UNL1       -0.4714
     27 O          64.2856   85.2473   14.9903 O.3     1  UNL1       -0.4714
     28 C          64.1107   86.6408   15.5173 C.3     1  UNL1        0.2525
@<TRIPOS>BOND
     1    25    26    1
     2    26    19    1
     3    19    20   ar
     4    20    21   ar
     5    21    22   ar
     6    22    16    1
     7    16    17    1
     8    16     1    1
     9     1     2    2
    10     2     3   ar
    11     3     4   ar
    12     4    27    1
    13    27    28    1
    14     4     5   ar
    15     5     6   ar
    16     6     7    1
    17     6     8   ar
    18     8     9    2
    19     9    10    1
    20    10    11    2
    21    11    12    1
    22    12    13    2
    23    13    14    1
    24    13    15    1
    25    22    23   ar
    26    23    24   ar
    27    24    19   ar
    28    15     1    1
    29     8     2   ar
    30    15    10    1
    31    17    18    1
@<TRIPOS>MOLECULE
*****
 28 31 0 0 0
SMALL
GASTEIGER

@<TRIPOS>ATOM
      1 C          62.0165   88.1125   11.3789 C.2     1  UNL1        0.0069
      2 C          61.3279   87.9275   10.0591 C.ar    1  UNL1        0.0413
      3 C          60.6083   89.0786    9.4209 C.ar    1  UNL1        0.0400
      4 C          59.9197   88.8937    8.1012 C.ar    1  UNL1        0.1386
      5 C          59.9508   87.5578    7.4196 C.ar    1  UNL1        0.0363
      6 C          60.6705   86.4068    8.0578 C.ar    1  UNL1        0.0241
      7 C          60.7016   85.0709    7.3763 C.3     1  UNL1        0.0350
      8 C          61.3591   86.5917    9.3777 C.ar    1  UNL1        0.1888
      9 N          62.0787   85.4407   10.0159 N.2     1  UNL1       -0.0363
     10 C          62.7673   85.6256   11.3356 C.2     1  UNL1        0.3865
     11 N          63.5501   84.6823   12.2001 N.2     1  UNL1        0.0818
     12 N          64.0028   85.4352   13.4159 N.2     1  UNL1       -0.0421
     13 C          63.4997   86.8438   13.3028 C.2     1  UNL1        0.0990
     14 C          63.7214   87.9419   14.3003 C.3     1  UNL1        0.0523
     15 C          62.7361   86.9615   12.0171 C.3     1  UNL1        0.1749
     16 C          61.9853   89.4483   12.0604 C.3     1  UNL1        0.1521
     17 O          60.8501   89.7964   12.9772 O.3     1  UNL1       -0.3759
     18 H          60.2278   89.0534   13.0177 H       1  UNL1        0.2112
     19 C          65.2972   92.4120   11.3546 C.ar    1  UNL1        0.1387
     20 C          65.0914   91.8286   12.7210 C.ar    1  UNL1        0.0367
     21 C          63.9874   90.8407   12.9564 C.ar    1  UNL1        0.0015
     22 C          63.0893   90.4362   11.8251 C.ar    1  UNL1        0.0083
     23 C          63.2950   91.0196   10.4586 C.ar    1  UNL1        0.0015
     24 C          64.3990   92.0075   10.2233 C.ar    1  UNL1        0.0367
     25 C          66.2427   94.8225   11.5678 C.3     1  UNL1        0.2525
     26 O          66.4012   93.3999   11.1193 O.3     1  UNL1       -0.4714
     27 O          59.2001   90.0446    7.4630 O.3     1  UNL1       -0.4714
     28 C          59.0635   90.1092    5.9705 C.3     1  UNL1        0.2525
@<TRIPOS>BOND
     1    25    26    1
     2    26    19    1
     3    19    20   ar
     4    20    21   ar
     5    21    22   ar
     6    22    16    1
     7    16    17    1
     8    16     1    1
     9     1     2    2
    10     2     3   ar
    11     3     4   ar
    12     4    27    1
    13    27    28    1
    14     4     5   ar
    15     5     6   ar
    16     6     7    1
    17     6     8   ar
    18     8     9    2
    19     9    10    1
    20    10    11    2
    21    11    12    1
    22    12    13    2
    23    13    14    1
    24    13    15    1
    25    22    23   ar
    26    23    24   ar
    27    24    19   ar
    28    15     1    1
    29     8     2   ar
    30    15    10    1
    31    17    18    1
@<TRIPOS>MOLECULE
*****
 28 31 0 0 0
SMALL
GASTEIGER

@<TRIPOS>ATOM
      1 C          61.8024   86.7581    9.4654 C.2     1  UNL1        0.0069
      2 C          61.7993   87.8446   10.4995 C.ar    1  UNL1        0.0413
      3 C          62.9720   88.0064   11.4208 C.ar    1  UNL1        0.0400
      4 C          62.9689   89.0929   12.4550 C.ar    1  UNL1        0.1386
      5 C          61.7933   90.0176   12.5679 C.ar    1  UNL1        0.0363
      6 C          60.6207   89.8558   11.6466 C.ar    1  UNL1        0.0241
      7 C          59.4450   90.7805   11.7594 C.3     1  UNL1        0.0350
      8 C          60.6237   88.7692   10.6123 C.ar    1  UNL1        0.1888
      9 N          59.4511   88.6075    9.6910 N.2     1  UNL1       -0.0363
     10 C          59.4541   87.5210    8.6569 C.2     1  UNL1        0.3865
     11 N          58.4486   87.1213    7.6180 N.2     1  UNL1        0.0818
     12 N          59.0029   85.9496    6.8632 N.2     1  UNL1       -0.0421
     13 C          60.3509   85.6251    7.4355 C.2     1  UNL1        0.0990
     14 C          61.2604   84.5229    6.9792 C.3     1  UNL1        0.0523
     15 C          60.6298   86.5963    8.5441 C.3     1  UNL1        0.1749
     16 C          62.9781   85.8334    9.3525 C.3     1  UNL1        0.1521
     17 O          64.0187   86.0684    8.2980 O.3     1  UNL1       -0.3759
     18 H          63.7816   86.8528    7.7789 H       1  UNL1        0.2112
     19 C          63.3835   82.3542   12.1776 C.ar    1  UNL1        0.1387
     20 C          64.0294   82.3011   10.8249 C.ar    1  UNL1        0.0367
     21 C          63.8943   83.4608    9.8831 C.ar    1  UNL1        0.0015
     22 C          63.1132   84.6737   10.2942 C.ar    1  UNL1        0.0083
     23 C          62.4673   84.7269   11.6470 C.ar    1  UNL1        0.0015
     24 C          62.6024   83.5671   12.5887 C.ar    1  UNL1        0.0367
     25 C          62.3945   80.2120   13.2653 C.3     1  UNL1        0.2525
     26 O          63.5186   81.1945   13.1193 O.3     1  UNL1       -0.4714
     27 O          64.1415   89.2547   13.3763 O.3     1  UNL1       -0.4714
     28 C          64.2862   88.3587   14.5707 C.3     1  UNL1        0.2525
@<TRIPOS>BOND
     1    25    26    1
     2    26    19    1
     3    19    20   ar
     4    20    21   ar
     5    21    22   ar
     6    22    16    1
     7    16    17    1
     8    16     1    1
     9     1     2    2
    10     2     3   ar
    11     3     4   ar
    12     4    27    1
    13    27    28    1
    14     4     5   ar
    15     5     6   ar
    16     6     7    1
    17     6     8   ar
    18     8     9    2
    19     9    10    1
    20    10    11    2
    21    11    12    1
    22    12    13    2
    23    13    14    1
    24    13    15    1
    25    22    23   ar
    26    23    24   ar
    27    24    19   ar
    28    15     1    1
    29     8     2   ar
    30    15    10    1
    31    17    18    1
@<TRIPOS>MOLECULE
*****
 28 31 0 0 0
SMALL
GASTEIGER

@<TRIPOS>ATOM
      1 C          62.0574   87.3787   11.5489 C.2     1  UNL1        0.0069
      2 C          62.6419   86.2800   12.3863 C.ar    1  UNL1        0.0413
      3 C          62.1814   84.8652   12.1948 C.ar    1  UNL1        0.0400
      4 C          62.7660   83.7665   13.0321 C.ar    1  UNL1        0.1386
      5 C          63.8110   84.0824   14.0609 C.ar    1  UNL1        0.0363
      6 C          64.2714   85.4971   14.2523 C.ar    1  UNL1        0.0241
      7 C          65.3164   85.8131   15.2810 C.3     1  UNL1        0.0350
      8 C          63.6868   86.5959   13.4149 C.ar    1  UNL1        0.1888
      9 N          64.1473   88.0106   13.6063 N.2     1  UNL1       -0.0363
     10 C          63.5628   89.1094   12.7690 C.2     1  UNL1        0.3865
     11 N          63.8175   90.5871   12.7323 N.2     1  UNL1        0.0818
     12 N          62.9300   91.1844   11.6808 N.2     1  UNL1       -0.0421
     13 C          62.1267   90.0758   11.0678 C.2     1  UNL1        0.0990
     14 C          61.1108   90.2238    9.9742 C.3     1  UNL1        0.0523
     15 C          62.5178   88.7934   11.7403 C.3     1  UNL1        0.1749
     16 C          61.0124   87.0627   10.5202 C.3     1  UNL1        0.1521
     17 O          59.5880   87.4752   10.7468 O.3     1  UNL1       -0.3759
     18 H          59.5154   87.9317   11.5995 H       1  UNL1        0.2112
     19 C          62.1503   84.8774    6.7547 C.ar    1  UNL1        0.1387
     20 C          63.1668   85.0843    7.8380 C.ar    1  UNL1        0.0367
     21 C          62.7876   85.8127    9.0933 C.ar    1  UNL1        0.0015
     22 C          61.3917   86.3342    9.2651 C.ar    1  UNL1        0.0083
     23 C          60.3750   86.1274    8.1817 C.ar    1  UNL1        0.0015
     24 C          60.7543   85.3989    6.9265 C.ar    1  UNL1        0.0367
     25 C          61.5785   84.1070    4.3403 C.3     1  UNL1        0.2525
     26 O          62.5296   84.1489    5.4995 O.3     1  UNL1       -0.4714
     27 O          62.3056   82.3518   12.8407 O.3     1  UNL1       -0.4714
     28 C          62.9381   81.4935   11.7856 C.3     1  UNL1        0.2525
@<TRIPOS>BOND
     1    25    26    1
     2    26    19    1
     3    19    20   ar
     4    20    21   ar
     5    21    22   ar
     6    22    16    1
     7    16    17    1
     8    16     1    1
     9     1     2    2
    10     2     3   ar
    11     3     4   ar
    12     4    27    1
    13    27    28    1
    14     4     5   ar
    15     5     6   ar
    16     6     7    1
    17     6     8   ar
    18     8     9    2
    19     9    10    1
    20    10    11    2
    21    11    12    1
    22    12    13    2
    23    13    14    1
    24    13    15    1
    25    22    23   ar
    26    23    24   ar
    27    24    19   ar
    28    15     1    1
    29     8     2   ar
    30    15    10    1
    31    17    18    1
@<TRIPOS>MOLECULE
*****
 28 31 0 0 0
SMALL
GASTEIGER

@<TRIPOS>ATOM
      1 C          63.4586   85.1981   11.9595 C.2     1  UNL1        0.0069
      2 C          62.6921   85.9416   10.9060 C.ar    1  UNL1        0.0413
      3 C          62.2679   85.2385    9.6507 C.ar    1  UNL1        0.0400
      4 C          61.5014   85.9819    8.5972 C.ar    1  UNL1        0.1386
      5 C          61.1592   87.4284    8.7989 C.ar    1  UNL1        0.0363
      6 C          61.5834   88.1314   10.0542 C.ar    1  UNL1        0.0241
      7 C          61.2412   89.5778   10.2560 C.3     1  UNL1        0.0350
      8 C          62.3499   87.3879   11.1078 C.ar    1  UNL1        0.1888
      9 N          62.7742   88.0910   12.3631 N.2     1  UNL1       -0.0363
     10 C          63.5406   87.3476   13.4166 C.2     1  UNL1        0.3865
     11 N          64.0887   87.7724   14.7467 N.2     1  UNL1        0.0818
     12 N          64.7696   86.5885   15.3669 N.2     1  UNL1       -0.0421
     13 C          64.6424   85.4320   14.4202 C.2     1  UNL1        0.0990
     14 C          65.1803   84.0492   14.6402 C.3     1  UNL1        0.0523
     15 C          63.8828   85.9012   13.2148 C.3     1  UNL1        0.1749
     16 C          63.8008   83.7517   11.7577 C.3     1  UNL1        0.1521
     17 O          64.9768   83.3707   10.9079 O.3     1  UNL1       -0.3759
     18 H          65.4033   84.1727   10.5678 H       1  UNL1        0.2112
     19 C          61.2996   80.5554   13.7013 C.ar    1  UNL1        0.1387
     20 C          62.1715   80.2161   12.5290 C.ar    1  UNL1        0.0367
     21 C          63.0053   81.2815   11.8810 C.ar    1  UNL1        0.0015
     22 C          62.9670   82.6863   12.4056 C.ar    1  UNL1        0.0083
     23 C          62.0951   83.0257   13.5780 C.ar    1  UNL1        0.0015
     24 C          61.2613   81.9603   14.2259 C.ar    1  UNL1        0.0367
     25 C          58.9926   79.7010   14.5365 C.3     1  UNL1        0.2525
     26 O          60.4658   79.4900   14.3493 O.3     1  UNL1       -0.4714
     27 O          61.0772   85.2789    7.3419 O.3     1  UNL1       -0.4714
     28 C          62.1028   84.6187    6.4687 C.3     1  UNL1        0.2525
@<TRIPOS>BOND
     1    25    26    1
     2    26    19    1
     3    19    20   ar
     4    20    21   ar
     5    21    22   ar
     6    22    16    1
     7    16    17    1
     8    16     1    1
     9     1     2    2
    10     2     3   ar
    11     3     4   ar
    12     4    27    1
    13    27    28    1
    14     4     5   ar
    15     5     6   ar
    16     6     7    1
    17     6     8   ar
    18     8     9    2
    19     9    10    1
    20    10    11    2
    21    11    12    1
    22    12    13    2
    23    13    14    1
    24    13    15    1
    25    22    23   ar
    26    23    24   ar
    27    24    19   ar
    28    15     1    1
    29     8     2   ar
    30    15    10    1
    31    17    18    1
@<TRIPOS>MOLECULE
*****
 28 31 0 0 0
SMALL
GASTEIGER

@<TRIPOS>ATOM
      1 C          60.7218   94.3097    0.1926 C.2     1  UNL1        0.0069
      2 C          60.8229   93.4467    1.4153 C.ar    1  UNL1        0.0413
      3 C          59.6141   93.2174    2.2735 C.ar    1  UNL1        0.0400
      4 C          59.7152   92.3544    3.4962 C.ar    1  UNL1        0.1386
      5 C          61.0250   91.7207    3.8608 C.ar    1  UNL1        0.0363
      6 C          62.2337   91.9500    3.0027 C.ar    1  UNL1        0.0241
      7 C          63.5435   91.3163    3.3672 C.3     1  UNL1        0.0350
      8 C          62.1326   92.8130    1.7799 C.ar    1  UNL1        0.1888
      9 N          63.3414   93.0423    0.9217 N.2     1  UNL1       -0.0363
     10 C          63.2403   93.9053   -0.3010 C.2     1  UNL1        0.3865
     11 N          64.2533   94.3092   -1.3309 N.2     1  UNL1        0.0818
     12 N          63.5695   95.1926   -2.3320 N.2     1  UNL1       -0.0421
     13 C          62.1340   95.3346   -1.9208 C.2     1  UNL1        0.0990
     14 C          61.0859   96.1321   -2.6388 C.3     1  UNL1        0.0523
     15 C          61.9305   94.5390   -0.6655 C.3     1  UNL1        0.1749
     16 C          59.4120   94.9434   -0.1719 C.3     1  UNL1        0.1521
     17 O          59.0252   96.2634    0.4265 O.3     1  UNL1       -0.3759
     18 H          59.7277   96.5665    1.0227 H       1  UNL1        0.2112
     19 C          56.6431   92.8845   -3.0605 C.ar    1  UNL1        0.1387
     20 C          58.0924   92.5017   -3.0086 C.ar    1  UNL1        0.0367
     21 C          59.0155   93.1879   -2.0457 C.ar    1  UNL1        0.0015
     22 C          58.4890   94.2571   -1.1348 C.ar    1  UNL1        0.0083
     23 C          57.0396   94.6399   -1.1866 C.ar    1  UNL1        0.0015
     24 C          56.1167   93.9537   -2.1495 C.ar    1  UNL1        0.0367
     25 C          56.2121   91.8088   -5.3858 C.3     1  UNL1        0.2525
     26 O          55.7201   92.1982   -4.0234 O.3     1  UNL1       -0.4714
     27 O          58.5065   92.1251    4.3543 O.3     1  UNL1       -0.4714
     28 C          58.5279   91.0607    5.4111 C.3     1  UNL1        0.2525
@<TRIPOS>BOND
     1    25    26    1
     2    26    19    1
     3    19    20   ar
     4    20    21   ar
     5    21    22   ar
     6    22    16    1
     7    16    17    1
     8    16     1    1
     9     1     2    2
    10     2     3   ar
    11     3     4   ar
    12     4    27    1
    13    27    28    1
    14     4     5   ar
    15     5     6   ar
    16     6     7    1
    17     6     8   ar
    18     8     9    2
    19     9    10    1
    20    10    11    2
    21    11    12    1
    22    12    13    2
    23    13    14    1
    24    13    15    1
    25    22    23   ar
    26    23    24   ar
    27    24    19   ar
    28    15     1    1
    29     8     2   ar
    30    15    10    1
    31    17    18    1
@<TRIPOS>MOLECULE
*****
 28 31 0 0 0
SMALL
GASTEIGER

@<TRIPOS>ATOM
      1 C          62.8361   88.1234   12.5022 C.2     1  UNL1        0.0069
      2 C          62.3697   87.4869   11.2266 C.ar    1  UNL1        0.0413
      3 C          61.6207   88.3002   10.2128 C.ar    1  UNL1        0.0400
      4 C          61.1543   87.6636    8.9371 C.ar    1  UNL1        0.1386
      5 C          61.4367   86.2139    8.6753 C.ar    1  UNL1        0.0363
      6 C          62.1857   85.4007    9.6891 C.ar    1  UNL1        0.0241
      7 C          62.4681   83.9510    9.4273 C.3     1  UNL1        0.0350
      8 C          62.6522   86.0373   10.9648 C.ar    1  UNL1        0.1888
      9 N          63.4011   85.2240   11.9786 N.2     1  UNL1       -0.0363
     10 C          63.8676   85.8605   13.2542 C.2     1  UNL1        0.3865
     11 N          64.6222   85.3155   14.4304 N.2     1  UNL1        0.0818
     12 N          64.8061   86.4284   15.4192 N.2     1  UNL1       -0.0421
     13 C          64.1651   87.6612   14.8541 C.2     1  UNL1        0.0990
     14 C          64.1134   89.0085   15.5115 C.3     1  UNL1        0.0523
     15 C          63.5851   87.3103   13.5160 C.3     1  UNL1        0.1749
     16 C          62.5537   89.5732   12.7640 C.3     1  UNL1        0.1521
     17 O          61.2999   89.9751   13.4828 O.3     1  UNL1       -0.3759
     18 H          60.7872   89.1826   13.7064 H       1  UNL1        0.2112
     19 C          65.4674   92.7165   11.3932 C.ar    1  UNL1        0.1387
     20 C          64.4777   92.1384   10.4257 C.ar    1  UNL1        0.0367
     21 C          63.5064   91.0905   10.8826 C.ar    1  UNL1        0.0015
     22 C          63.5249   90.6209   12.3071 C.ar    1  UNL1        0.0083
     23 C          64.5146   91.1991   13.2747 C.ar    1  UNL1        0.0015
     24 C          65.4859   92.2469   12.8177 C.ar    1  UNL1        0.0367
     25 C          67.2593   93.5387    9.7011 C.3     1  UNL1        0.2525
     26 O          66.4387   93.7644   10.9362 O.3     1  UNL1       -0.4714
     27 O          60.4054   88.4768    7.9233 O.3     1  UNL1       -0.4714
     28 C          59.0101   88.0884    7.5328 C.3     1  UNL1        0.2525
@<TRIPOS>BOND
     1    25    26    1
     2    26    19    1
     3    19    20   ar
     4    20    21   ar
     5    21    22   ar
     6    22    16    1
     7    16    17    1
     8    16     1    1
     9     1     2    2
    10     2     3   ar
    11     3     4   ar
    12     4    27    1
    13    27    28    1
    14     4     5   ar
    15     5     6   ar
    16     6     7    1
    17     6     8   ar
    18     8     9    2
    19     9    10    1
    20    10    11    2
    21    11    12    1
    22    12    13    2
    23    13    14    1
    24    13    15    1
    25    22    23   ar
    26    23    24   ar
    27    24    19   ar
    28    15     1    1
    29     8     2   ar
    30    15    10    1
    31    17    18    1
