@<TRIPOS>MOLECULE
*****
 29 32 0 0 0
SMALL
GASTEIGER

@<TRIPOS>ATOM
      1 C          59.1127   88.5870    7.4408 C.3     1  UNL1        0.0518
      2 C          60.1020   88.5320    8.5671 C.ar    1  UNL1        0.0563
      3 N          60.5524   89.7988    9.2321 N.ar    1  UNL1       -0.2524
      4 C          61.5416   89.7439   10.3583 C.ar    1  UNL1        0.0834
      5 C          62.0804   88.4222   10.8196 C.ar    1  UNL1        0.0689
      6 C          61.6300   87.1554   10.1545 C.ar    1  UNL1        0.0049
      7 C          60.6407   87.2103    9.0282 C.ar    1  UNL1        0.0072
      8 C          63.0373   88.6791   11.9457 C.2     1  UNL1        0.2553
      9 O          63.8066   87.6383   12.7039 O.2     1  UNL1       -0.2695
     10 N          63.0900   90.1597   12.1804 N.am    1  UNL1       -0.2330
     11 C          62.1655   90.8178   11.1994 C.3     1  UNL1        0.1457
     12 C          62.1687   85.8335   10.6157 C.ar    1  UNL1        0.0106
     13 C          61.8117   85.3115   11.9759 C.ar    1  UNL1        0.0017
     14 C          62.3505   83.9898   12.4371 C.ar    1  UNL1        0.0114
     15 C          63.2461   83.1901   11.5381 C.ar    1  UNL1        0.0585
     16 CL         63.7848   81.8683   11.9994 Cl      1  UNL1       -0.0822
     17 C          63.6031   83.7121   10.1780 C.ar    1  UNL1        0.0228
     18 C          63.0644   85.0339    9.7167 C.ar    1  UNL1        0.0585
     19 CL         63.4214   85.5559    8.3566 Cl      1  UNL1       -0.0822
     20 C          63.9211   90.8594   13.2146 C.ar    1  UNL1        0.1593
     21 C          63.9247   90.5699   14.6864 C.ar    1  UNL1        0.0567
     22 C          64.9004   91.5030   15.3401 C.ar    1  UNL1        0.0981
     23 N          65.4999   92.3693   14.2723 N.ar    1  UNL1       -0.2462
     24 C          66.5246   93.4445   14.4813 C.3     1  UNL1        0.1538
     25 N          64.8946   91.9715   12.9586 N.ar    1  UNL1       -0.1537
     26 C          60.1903   85.9434    8.3632 C.3     1  UNL1        0.0934
     27 N          60.6536   85.6201    6.9736 N.3     1  UNL1       -0.3174
     28 H          60.2693   86.3021    6.3198 H       1  UNL1        0.1192
     29 H          60.3341   84.6859    6.7174 H       1  UNL1        0.1192
@<TRIPOS>BOND
     1     1     2    1
     2     2     3   ar
     3     3     4   ar
     4     4     5   ar
     5     5     6   ar
     6     6    12    1
     7    12    13   ar
     8    13    14   ar
     9    14    15   ar
    10    15    16    1
    11    15    17   ar
    12    17    18   ar
    13    18    19    1
    14     6     7   ar
    15     7    26    1
    16    26    27    1
    17     5     8    1
    18     8     9    2
    19     8    10   am
    20    10    20    1
    21    20    21   ar
    22    21    22   ar
    23    22    23   ar
    24    23    24    1
    25    23    25   ar
    26    10    11    1
    27     7     2   ar
    28    25    20   ar
    29    11     4    1
    30    18    12   ar
    31    27    28    1
    32    27    29    1
@<TRIPOS>MOLECULE
*****
 29 32 0 0 0
SMALL
GASTEIGER

@<TRIPOS>ATOM
      1 C          63.8854   81.6968   13.8297 C.3     1  UNL1        0.0518
      2 C          63.7422   83.1706   13.5897 C.ar    1  UNL1        0.0563
      3 N          64.3252   84.1494   14.5655 N.ar    1  UNL1       -0.2524
      4 C          64.1820   85.6232   14.3256 C.ar    1  UNL1        0.0834
      5 C          63.4559   86.1181   13.1100 C.ar    1  UNL1        0.0689
      6 C          62.8729   85.1393   12.1342 C.ar    1  UNL1        0.0049
      7 C          63.0161   83.6655   12.3742 C.ar    1  UNL1        0.0072
      8 C          63.4729   87.6178   13.1383 C.2     1  UNL1        0.2553
      9 O          62.8608   88.5260   12.1135 O.2     1  UNL1       -0.2695
     10 N          64.2096   88.0496   14.3715 N.am    1  UNL1       -0.2330
     11 C          64.6479   86.8169   15.1053 C.3     1  UNL1        0.1457
     12 C          62.1467   85.6342   10.9185 C.ar    1  UNL1        0.0106
     13 C          60.8969   86.4493   11.0716 C.ar    1  UNL1        0.0017
     14 C          60.1707   86.9442    9.8560 C.ar    1  UNL1        0.0114
     15 C          60.6944   86.6240    8.4874 C.ar    1  UNL1        0.0585
     16 CL         59.9681   87.1189    7.2718 Cl      1  UNL1       -0.0822
     17 C          61.9442   85.8088    8.3343 C.ar    1  UNL1        0.0228
     18 C          62.6704   85.3139    9.5499 C.ar    1  UNL1        0.0585
     19 CL         63.9203   84.4988    9.3969 Cl      1  UNL1       -0.0822
     20 C          64.4636   89.4656   14.7964 C.ar    1  UNL1        0.1593
     21 C          63.6960   90.2247   15.8379 C.ar    1  UNL1        0.0567
     22 C          64.2877   91.5993   15.9395 C.ar    1  UNL1        0.0981
     23 N          65.4209   91.6899   14.9609 N.ar    1  UNL1       -0.2462
     24 C          66.2923   92.8885   14.7294 C.3     1  UNL1        0.1538
     25 N          65.5295   90.3711   14.2544 N.ar    1  UNL1       -0.1537
     26 C          62.4331   82.6867   11.3984 C.3     1  UNL1        0.0934
     27 N          63.3099   81.6486   10.7629 N.3     1  UNL1       -0.3174
     28 H          63.9939   82.1046   10.1592 H       1  UNL1        0.1192
     29 H          62.7368   81.0130   10.2080 H       1  UNL1        0.1192
@<TRIPOS>BOND
     1     1     2    1
     2     2     3   ar
     3     3     4   ar
     4     4     5   ar
     5     5     6   ar
     6     6    12    1
     7    12    13   ar
     8    13    14   ar
     9    14    15   ar
    10    15    16    1
    11    15    17   ar
    12    17    18   ar
    13    18    19    1
    14     6     7   ar
    15     7    26    1
    16    26    27    1
    17     5     8    1
    18     8     9    2
    19     8    10   am
    20    10    20    1
    21    20    21   ar
    22    21    22   ar
    23    22    23   ar
    24    23    24    1
    25    23    25   ar
    26    10    11    1
    27     7     2   ar
    28    25    20   ar
    29    11     4    1
    30    18    12   ar
    31    27    28    1
    32    27    29    1
@<TRIPOS>MOLECULE
*****
 29 32 0 0 0
SMALL
GASTEIGER

@<TRIPOS>ATOM
      1 C          63.0419   92.3938    2.5359 C.3     1  UNL1        0.0518
      2 C          62.4448   92.7435    1.2050 C.ar    1  UNL1        0.0563
      3 N          61.0355   92.3407    0.8862 N.ar    1  UNL1       -0.2524
      4 C          60.4383   92.6903   -0.4446 C.ar    1  UNL1        0.0834
      5 C          61.2504   93.4428   -1.4567 C.ar    1  UNL1        0.0689
      6 C          62.6597   93.8457   -1.1379 C.ar    1  UNL1        0.0049
      7 C          63.2569   93.4959    0.1930 C.ar    1  UNL1        0.0072
      8 C          60.3997   93.6462   -2.6752 C.2     1  UNL1        0.2553
      9 O          60.8141   94.3524   -3.9320 O.2     1  UNL1       -0.2695
     10 N          59.0618   93.0194   -2.4163 N.am    1  UNL1       -0.2330
     11 C          59.0856   92.4286   -1.0377 C.3     1  UNL1        0.1457
     12 C          63.4719   94.5982   -2.1499 C.ar    1  UNL1        0.0106
     13 C          63.6553   96.0805   -2.0121 C.ar    1  UNL1        0.0017
     14 C          64.4674   96.8331   -3.0240 C.ar    1  UNL1        0.0114
     15 C          65.0962   96.1033   -4.1738 C.ar    1  UNL1        0.0585
     16 CL         65.9083   96.8559   -5.1857 Cl      1  UNL1       -0.0822
     17 C          64.9128   94.6209   -4.3116 C.ar    1  UNL1        0.0228
     18 C          64.1006   93.8684   -3.2997 C.ar    1  UNL1        0.0585
     19 CL         63.9173   92.3860   -3.4375 Cl      1  UNL1       -0.0822
     20 C          57.9033   92.9887   -3.3687 C.ar    1  UNL1        0.1593
     21 C          57.0248   94.1508   -3.7261 C.ar    1  UNL1        0.0567
     22 C          55.9985   93.6709   -4.7091 C.ar    1  UNL1        0.0981
     23 N          56.2427   92.2122   -4.9593 N.ar    1  UNL1       -0.2462
     24 C          55.4492   91.3300   -5.8768 C.3     1  UNL1        0.1538
     25 N          57.4200   91.7906   -4.1308 N.ar    1  UNL1       -0.1537
     26 C          64.6662   93.8988    0.5118 C.3     1  UNL1        0.0934
     27 N          65.7588   92.8711    0.5093 N.3     1  UNL1       -0.3174
     28 H          65.5980   92.2021    1.2623 H       1  UNL1        0.1192
     29 H          66.6585   93.3309    0.6494 H       1  UNL1        0.1192
@<TRIPOS>BOND
     1     1     2    1
     2     2     3   ar
     3     3     4   ar
     4     4     5   ar
     5     5     6   ar
     6     6    12    1
     7    12    13   ar
     8    13    14   ar
     9    14    15   ar
    10    15    16    1
    11    15    17   ar
    12    17    18   ar
    13    18    19    1
    14     6     7   ar
    15     7    26    1
    16    26    27    1
    17     5     8    1
    18     8     9    2
    19     8    10   am
    20    10    20    1
    21    20    21   ar
    22    21    22   ar
    23    22    23   ar
    24    23    24    1
    25    23    25   ar
    26    10    11    1
    27     7     2   ar
    28    25    20   ar
    29    11     4    1
    30    18    12   ar
    31    27    28    1
    32    27    29    1
