@<TRIPOS>MOLECULE
*****
 34 37 0 0 0
SMALL
GASTEIGER

@<TRIPOS>ATOM
      1 N          64.3368   91.6311   12.2734 N.ar    1  UNL1       -0.2570
      2 C          65.5799   92.4506   12.4549 C.ar    1  UNL1        0.1213
      3 C          66.1947   92.5893   13.8160 C.ar    1  UNL1        0.0935
      4 C          65.5664   91.9084   14.9957 C.ar    1  UNL1        0.2674
      5 O          66.1812   92.0471   16.3569 O.2     1  UNL1       -0.2667
      6 N          64.3232   91.0889   14.8142 N.ar    1  UNL1       -0.2428
      7 C          63.7084   90.9502   13.4530 C.ar    1  UNL1        0.3357
      8 O          62.4653   90.1307   13.2715 O.2     1  UNL1       -0.2461
      9 N          66.2082   93.1315   11.2752 N.pl3   1  UNL1       -0.2930
     10 C          65.8665   94.5583   10.9631 C.3     1  UNL1        0.0922
     11 C          66.4949   95.2392    9.7834 C.3     1  UNL1        0.0229
     12 C          67.4649   94.4933    8.9159 C.3     1  UNL1        0.0190
     13 C          67.8066   93.0665    9.2280 C.3     1  UNL1        0.0709
     14 N          68.7767   92.3205    8.3605 N.3     1  UNL1       -0.3208
     15 C          67.1783   92.3855   10.4077 C.3     1  UNL1        0.1075
     16 H          68.8904   91.3713    8.7160 H       1  UNL1        0.1189
     17 H          69.6781   92.7977    8.3704 H       1  UNL1        0.1189
     18 C          63.7219   91.4924   10.9123 C.3     1  UNL1        0.1879
     19 C          61.7930   87.6119    9.6995 C.3     1  UNL1        0.0900
     20 C          62.4360   88.9054   10.1037 C.1     1  UNL1       -0.0881
     21 C          63.0789   90.1988   10.5079 C.1     1  UNL1       -0.0655
     22 C          63.6949   90.4080   15.9939 C.3     1  UNL1        0.1592
     23 C          63.5861   88.9123   16.0263 C.ar    1  UNL1        0.0820
     24 C          62.9772   88.2302   17.2154 C.ar    1  UNL1        0.0167
     25 C          62.8684   86.7345   17.2478 C.ar    1  UNL1        0.0029
     26 C          63.3685   85.9209   16.0911 C.ar    1  UNL1        0.0207
     27 C          63.2597   84.4252   16.1235 C.ar    1  UNL1        0.0384
     28 C          63.7598   83.6116   14.9668 C.ar    1  UNL1        0.1388
     29 C          64.3687   84.2937   13.7777 C.ar    1  UNL1        0.0384
     30 C          64.4775   85.7894   13.7453 C.ar    1  UNL1        0.0222
     31 C          63.9774   86.6030   14.9020 C.ar    1  UNL1        0.0812
     32 N          64.0862   88.0987   14.8696 N.ar    1  UNL1       -0.2477
     33 O          63.6510   82.1159   14.9992 O.3     1  UNL1       -0.4714
     34 C          63.5513   81.3432   13.7174 C.3     1  UNL1        0.2525
@<TRIPOS>BOND
     1    19    20    1
     2    20    21    3
     3    21    18    1
     4    18     1    1
     5     1     2   ar
     6     2     9    1
     7     9    10    1
     8    10    11    1
     9    11    12    1
    10    12    13    1
    11    13    14    1
    12    13    15    1
    13     2     3   ar
    14     3     4   ar
    15     4     5    2
    16     4     6   ar
    17     6    22    1
    18    22    23    1
    19    23    24   ar
    20    24    25   ar
    21    25    26   ar
    22    26    27   ar
    23    27    28   ar
    24    28    33    1
    25    33    34    1
    26    28    29   ar
    27    29    30   ar
    28    30    31   ar
    29    31    32   ar
    30     6     7   ar
    31     7     8    2
    32     7     1   ar
    33    15     9    1
    34    32    23   ar
    35    31    26   ar
    36    14    16    1
    37    14    17    1
@<TRIPOS>MOLECULE
*****
 34 37 0 0 0
SMALL
GASTEIGER

@<TRIPOS>ATOM
      1 N          65.0382   91.6756   12.5530 N.ar    1  UNL1       -0.2570
      2 C          65.3882   91.5406   14.0053 C.ar    1  UNL1        0.1213
      3 C          64.4424   90.8516   14.9438 C.ar    1  UNL1        0.0935
      4 C          63.1465   90.2977   14.4300 C.ar    1  UNL1        0.2674
      5 O          62.2007   89.6088   15.3684 O.2     1  UNL1       -0.2667
      6 N          62.7965   90.4328   12.9776 N.ar    1  UNL1       -0.2428
      7 C          63.7424   91.1218   12.0392 C.ar    1  UNL1        0.3357
      8 O          63.3924   91.2569   10.5868 O.2     1  UNL1       -0.2461
      9 N          66.6840   92.0944   14.5192 N.pl3   1  UNL1       -0.2930
     10 C          66.7001   92.9359   15.7609 C.3     1  UNL1        0.0922
     11 C          67.9959   93.4897   16.2748 C.3     1  UNL1        0.0229
     12 C          69.2757   93.2022   15.5470 C.3     1  UNL1        0.0190
     13 C          69.2596   92.3607   14.3054 C.3     1  UNL1        0.0709
     14 N          70.5393   92.0731   13.5776 N.3     1  UNL1       -0.3208
     15 C          67.9637   91.8068   13.7914 C.3     1  UNL1        0.1075
     16 H          70.3437   91.4915   12.7628 H       1  UNL1        0.1189
     17 H          71.1813   91.5820   14.1998 H       1  UNL1        0.1189
     18 C          65.9840   92.3646   11.6145 C.3     1  UNL1        0.1879
     19 C          65.9648   96.8531   11.2939 C.3     1  UNL1        0.0900
     20 C          65.9712   95.3569   11.4008 C.1     1  UNL1       -0.0881
     21 C          65.9776   93.8608   11.5077 C.1     1  UNL1       -0.0655
     22 C          61.5007   89.8790   12.4638 C.3     1  UNL1        0.1592
     23 C          61.5071   88.7839   11.4386 C.ar    1  UNL1        0.0820
     24 C          62.5171   87.6786   11.5281 C.ar    1  UNL1        0.0167
     25 C          62.5235   86.5837   10.5029 C.ar    1  UNL1        0.0029
     26 C          61.5197   86.5940    9.3883 C.ar    1  UNL1        0.0207
     27 C          61.5261   85.4990    8.3631 C.ar    1  UNL1        0.0384
     28 C          60.5224   85.5094    7.2484 C.ar    1  UNL1        0.1388
     29 C          59.5123   86.6148    7.1589 C.ar    1  UNL1        0.0384
     30 C          59.5060   87.7097    8.1841 C.ar    1  UNL1        0.0222
     31 C          60.5097   87.6994    9.2988 C.ar    1  UNL1        0.0812
     32 N          60.5034   88.7943   10.3239 N.ar    1  UNL1       -0.2477
     33 O          60.5287   84.4144    6.2232 O.3     1  UNL1       -0.4714
     34 C          61.7857   84.1031    5.4662 C.3     1  UNL1        0.2525
@<TRIPOS>BOND
     1    19    20    1
     2    20    21    3
     3    21    18    1
     4    18     1    1
     5     1     2   ar
     6     2     9    1
     7     9    10    1
     8    10    11    1
     9    11    12    1
    10    12    13    1
    11    13    14    1
    12    13    15    1
    13     2     3   ar
    14     3     4   ar
    15     4     5    2
    16     4     6   ar
    17     6    22    1
    18    22    23    1
    19    23    24   ar
    20    24    25   ar
    21    25    26   ar
    22    26    27   ar
    23    27    28   ar
    24    28    33    1
    25    33    34    1
    26    28    29   ar
    27    29    30   ar
    28    30    31   ar
    29    31    32   ar
    30     6     7   ar
    31     7     8    2
    32     7     1   ar
    33    15     9    1
    34    32    23   ar
    35    31    26   ar
    36    14    16    1
    37    14    17    1
@<TRIPOS>MOLECULE
*****
 34 37 0 0 0
SMALL
GASTEIGER

@<TRIPOS>ATOM
      1 N          64.8475   91.5372   12.5062 N.ar    1  UNL1       -0.2570
      2 C          65.4576   91.0804   13.7981 C.ar    1  UNL1        0.1213
      3 C          64.9412   89.8464   14.4766 C.ar    1  UNL1        0.0935
      4 C          63.8145   89.0690   13.8631 C.ar    1  UNL1        0.2674
      5 O          63.2980   87.8349   14.5415 O.2     1  UNL1       -0.2667
      6 N          63.2043   89.5257   12.5711 N.ar    1  UNL1       -0.2428
      7 C          63.7209   90.7598   11.8927 C.ar    1  UNL1        0.3357
      8 O          63.1107   91.2165   10.6008 O.2     1  UNL1       -0.2461
      9 N          66.5843   91.8578   14.4116 N.pl3   1  UNL1       -0.2930
     10 C          66.3175   92.7856   15.5597 C.3     1  UNL1        0.0922
     11 C          67.4441   93.5630   16.1732 C.3     1  UNL1        0.0229
     12 C          68.8376   93.4125   15.6387 C.3     1  UNL1        0.0190
     13 C          69.1044   92.4847   14.4907 C.3     1  UNL1        0.0709
     14 N          70.4978   92.3342   13.9562 N.3     1  UNL1       -0.3208
     15 C          67.9777   91.7073   13.8771 C.3     1  UNL1        0.1075
     16 H          70.4954   91.6690   13.1830 H       1  UNL1        0.1189
     17 H          71.1109   91.9929   14.6964 H       1  UNL1        0.1189
     18 C          65.3640   92.7712   11.8277 C.3     1  UNL1        0.1879
     19 C          68.7476   92.4675    8.8767 C.3     1  UNL1        0.0900
     20 C          67.6198   92.5688    9.8604 C.1     1  UNL1       -0.0881
     21 C          66.4919   92.6700   10.8440 C.1     1  UNL1       -0.0655
     22 C          62.0777   88.7484   11.9577 C.3     1  UNL1        0.1592
     23 C          62.3300   87.3825   11.3913 C.ar    1  UNL1        0.0820
     24 C          62.3626   87.1810    9.9053 C.ar    1  UNL1        0.0167
     25 C          62.6149   85.8152    9.3390 C.ar    1  UNL1        0.0029
     26 C          62.8345   84.6507   10.2587 C.ar    1  UNL1        0.0207
     27 C          63.0868   83.2848    9.6923 C.ar    1  UNL1        0.0384
     28 C          63.3064   82.1204   10.6120 C.ar    1  UNL1        0.1388
     29 C          63.2737   82.3219   12.0981 C.ar    1  UNL1        0.0384
     30 C          63.0214   83.6877   12.6644 C.ar    1  UNL1        0.0222
     31 C          62.8018   84.8522   11.7447 C.ar    1  UNL1        0.0812
     32 N          62.5496   86.2180   12.3110 N.ar    1  UNL1       -0.2477
     33 O          63.5586   80.7545   10.0457 O.3     1  UNL1       -0.4714
     34 C          62.8255   79.5672   10.5962 C.3     1  UNL1        0.2525
@<TRIPOS>BOND
     1    19    20    1
     2    20    21    3
     3    21    18    1
     4    18     1    1
     5     1     2   ar
     6     2     9    1
     7     9    10    1
     8    10    11    1
     9    11    12    1
    10    12    13    1
    11    13    14    1
    12    13    15    1
    13     2     3   ar
    14     3     4   ar
    15     4     5    2
    16     4     6   ar
    17     6    22    1
    18    22    23    1
    19    23    24   ar
    20    24    25   ar
    21    25    26   ar
    22    26    27   ar
    23    27    28   ar
    24    28    33    1
    25    33    34    1
    26    28    29   ar
    27    29    30   ar
    28    30    31   ar
    29    31    32   ar
    30     6     7   ar
    31     7     8    2
    32     7     1   ar
    33    15     9    1
    34    32    23   ar
    35    31    26   ar
    36    14    16    1
    37    14    17    1
@<TRIPOS>MOLECULE
*****
 34 37 0 0 0
SMALL
GASTEIGER

@<TRIPOS>ATOM
      1 N          63.2439   86.0771   12.7522 N.ar    1  UNL1       -0.2570
      2 C          62.6360   85.1747   11.7197 C.ar    1  UNL1        0.1213
      3 C          61.8759   85.7597   10.5664 C.ar    1  UNL1        0.0935
      4 C          61.7237   87.2471   10.4456 C.ar    1  UNL1        0.2674
      5 O          60.9637   87.8320    9.2924 O.2     1  UNL1       -0.2667
      6 N          62.3317   88.1495   11.4782 N.ar    1  UNL1       -0.2428
      7 C          63.0918   87.5645   12.6315 C.ar    1  UNL1        0.3357
      8 O          63.6997   88.4669   13.6640 O.2     1  UNL1       -0.2461
      9 N          62.7882   83.6874   11.8405 N.pl3   1  UNL1       -0.2930
     10 C          63.3437   82.8948   10.6945 C.3     1  UNL1        0.0922
     11 C          63.4959   81.4074   10.8152 C.3     1  UNL1        0.0229
     12 C          63.0925   80.7126   12.0819 C.3     1  UNL1        0.0190
     13 C          62.5370   81.5051   13.2279 C.3     1  UNL1        0.0709
     14 N          62.1336   80.8103   14.4946 N.3     1  UNL1       -0.3208
     15 C          62.3848   82.9926   13.1072 C.3     1  UNL1        0.1075
     16 H          61.7802   81.4967   15.1612 H       1  UNL1        0.1189
     17 H          62.9425   80.3341   14.8936 H       1  UNL1        0.1189
     18 C          64.0040   85.4922   13.9055 C.3     1  UNL1        0.1879
     19 C          62.8139   86.4990   18.1269 C.3     1  UNL1        0.0900
     20 C          63.2106   86.1634   16.7198 C.1     1  UNL1       -0.0881
     21 C          63.6073   85.8278   15.3127 C.1     1  UNL1       -0.0655
     22 C          62.1795   89.6368   11.3574 C.3     1  UNL1        0.1592
     23 C          63.2917   90.5426   11.7964 C.ar    1  UNL1        0.0820
     24 C          64.0193   91.3804   10.7872 C.ar    1  UNL1        0.0167
     25 C          65.1314   92.2862   11.2262 C.ar    1  UNL1        0.0029
     26 C          65.5159   92.3541   12.6745 C.ar    1  UNL1        0.0207
     27 C          66.6281   93.2600   13.1135 C.ar    1  UNL1        0.0384
     28 C          67.0126   93.3279   14.5618 C.ar    1  UNL1        0.1388
     29 C          66.2849   92.4901   15.5711 C.ar    1  UNL1        0.0384
     30 C          65.1728   91.5843   15.1320 C.ar    1  UNL1        0.0222
     31 C          64.7883   91.5163   13.6837 C.ar    1  UNL1        0.0812
     32 N          63.6762   90.6106   13.2447 N.ar    1  UNL1       -0.2477
     33 O          68.1247   94.2337   15.0008 O.3     1  UNL1       -0.4714
     34 C          69.0825   93.7843   16.0641 C.3     1  UNL1        0.2525
@<TRIPOS>BOND
     1    19    20    1
     2    20    21    3
     3    21    18    1
     4    18     1    1
     5     1     2   ar
     6     2     9    1
     7     9    10    1
     8    10    11    1
     9    11    12    1
    10    12    13    1
    11    13    14    1
    12    13    15    1
    13     2     3   ar
    14     3     4   ar
    15     4     5    2
    16     4     6   ar
    17     6    22    1
    18    22    23    1
    19    23    24   ar
    20    24    25   ar
    21    25    26   ar
    22    26    27   ar
    23    27    28   ar
    24    28    33    1
    25    33    34    1
    26    28    29   ar
    27    29    30   ar
    28    30    31   ar
    29    31    32   ar
    30     6     7   ar
    31     7     8    2
    32     7     1   ar
    33    15     9    1
    34    32    23   ar
    35    31    26   ar
    36    14    16    1
    37    14    17    1
@<TRIPOS>MOLECULE
*****
 34 37 0 0 0
SMALL
GASTEIGER

@<TRIPOS>ATOM
      1 N          64.7321   91.8456   12.7870 N.ar    1  UNL1       -0.2570
      2 C          65.3673   91.3880   14.0665 C.ar    1  UNL1        0.1213
      3 C          64.7318   90.2918   14.8692 C.ar    1  UNL1        0.0935
      4 C          63.4609   89.6531   14.3924 C.ar    1  UNL1        0.2674
      5 O          62.8254   88.5569   15.1951 O.2     1  UNL1       -0.2667
      6 N          62.8257   90.1108   13.1129 N.ar    1  UNL1       -0.2428
      7 C          63.4613   91.2070   12.3102 C.ar    1  UNL1        0.3357
      8 O          62.8261   91.6647   11.0307 O.2     1  UNL1       -0.2461
      9 N          66.6381   92.0265   14.5433 N.pl3   1  UNL1       -0.2930
     10 C          66.6155   92.9521   15.7235 C.3     1  UNL1        0.0922
     11 C          67.8862   93.5906   16.2003 C.3     1  UNL1        0.0229
     12 C          69.1796   93.3037   15.4969 C.3     1  UNL1        0.0190
     13 C          69.2023   92.3782   14.3168 C.3     1  UNL1        0.0709
     14 N          70.4957   92.0912   13.6134 N.3     1  UNL1       -0.3208
     15 C          67.9315   91.7396   13.8399 C.3     1  UNL1        0.1075
     16 H          70.3269   91.4472   12.8406 H       1  UNL1        0.1189
     17 H          71.1533   91.6700   14.2695 H       1  UNL1        0.1189
     18 C          65.3676   92.9418   11.9843 C.3     1  UNL1        0.1879
     19 C          68.6370   91.9746    9.0473 C.3     1  UNL1        0.0900
     20 C          67.5472   92.2970   10.0263 C.1     1  UNL1       -0.0881
     21 C          66.4575   92.6194   11.0053 C.1     1  UNL1       -0.0655
     22 C          61.5550   89.4722   12.6361 C.3     1  UNL1        0.1592
     23 C          61.5620   88.6160   11.4045 C.ar    1  UNL1        0.0820
     24 C          60.7788   89.0345   10.1956 C.ar    1  UNL1        0.0167
     25 C          60.7859   88.1783    8.9641 C.ar    1  UNL1        0.0029
     26 C          61.5762   86.9036    8.9414 C.ar    1  UNL1        0.0207
     27 C          61.5833   86.0473    7.7097 C.ar    1  UNL1        0.0384
     28 C          62.3736   84.7726    7.6870 C.ar    1  UNL1        0.1388
     29 C          63.1568   84.3541    8.8959 C.ar    1  UNL1        0.0384
     30 C          63.1497   85.2103   10.1275 C.ar    1  UNL1        0.0222
     31 C          62.3594   86.4851   10.1502 C.ar    1  UNL1        0.0812
     32 N          62.3523   87.3413   11.3818 N.ar    1  UNL1       -0.2477
     33 O          62.3806   83.9164    6.4554 O.3     1  UNL1       -0.4714
     34 C          61.6384   84.3596    5.2295 C.3     1  UNL1        0.2525
@<TRIPOS>BOND
     1    19    20    1
     2    20    21    3
     3    21    18    1
     4    18     1    1
     5     1     2   ar
     6     2     9    1
     7     9    10    1
     8    10    11    1
     9    11    12    1
    10    12    13    1
    11    13    14    1
    12    13    15    1
    13     2     3   ar
    14     3     4   ar
    15     4     5    2
    16     4     6   ar
    17     6    22    1
    18    22    23    1
    19    23    24   ar
    20    24    25   ar
    21    25    26   ar
    22    26    27   ar
    23    27    28   ar
    24    28    33    1
    25    33    34    1
    26    28    29   ar
    27    29    30   ar
    28    30    31   ar
    29    31    32   ar
    30     6     7   ar
    31     7     8    2
    32     7     1   ar
    33    15     9    1
    34    32    23   ar
    35    31    26   ar
    36    14    16    1
    37    14    17    1
@<TRIPOS>MOLECULE
*****
 34 37 0 0 0
SMALL
GASTEIGER

@<TRIPOS>ATOM
      1 N          62.1401   86.3106   11.4741 N.ar    1  UNL1       -0.2570
      2 C          63.0618   85.4054   12.2363 C.ar    1  UNL1        0.1213
      3 C          63.9094   85.9579   13.3436 C.ar    1  UNL1        0.0935
      4 C          63.8352   87.4158   13.6889 C.ar    1  UNL1        0.2674
      5 O          64.6828   87.9684   14.7962 O.2     1  UNL1       -0.2667
      6 N          62.9135   88.3211   12.9267 N.ar    1  UNL1       -0.2428
      7 C          62.0659   87.7685   11.8193 C.ar    1  UNL1        0.3357
      8 O          61.1442   88.6737   11.0571 O.2     1  UNL1       -0.2461
      9 N          63.1360   83.9475   11.8911 N.pl3   1  UNL1       -0.2930
     10 C          63.8030   83.5106   10.6206 C.3     1  UNL1        0.0922
     11 C          63.8772   82.0527   10.2755 C.3     1  UNL1        0.0229
     12 C          63.2843   81.0318   11.2008 C.3     1  UNL1        0.0190
     13 C          62.6173   81.4687   12.4712 C.3     1  UNL1        0.0709
     14 N          62.0244   80.4478   13.3965 N.3     1  UNL1       -0.3208
     15 C          62.5431   82.9266   12.8164 C.3     1  UNL1        0.1075
     16 H          61.6157   80.9177   14.2043 H       1  UNL1        0.1189
     17 H          62.7544   79.8076   13.7090 H       1  UNL1        0.1189
     18 C          61.2926   85.7581   10.3667 C.3     1  UNL1        0.1879
     19 C          59.3987   88.5405    7.3799 C.3     1  UNL1        0.0900
     20 C          60.0300   87.6131    8.3755 C.1     1  UNL1       -0.0881
     21 C          60.6613   86.6856    9.3711 C.1     1  UNL1       -0.0655
     22 C          62.8394   89.7789   13.2718 C.3     1  UNL1        0.1592
     23 C          63.5711   90.7860   12.4349 C.ar    1  UNL1        0.0820
     24 C          63.3885   90.7987   10.9461 C.ar    1  UNL1        0.0167
     25 C          64.1202   91.8057   10.1093 C.ar    1  UNL1        0.0029
     26 C          65.0346   92.8001   10.7612 C.ar    1  UNL1        0.0207
     27 C          65.7664   93.8072    9.9243 C.ar    1  UNL1        0.0384
     28 C          66.6808   94.8017   10.5762 C.ar    1  UNL1        0.1388
     29 C          66.8634   94.7890   12.0650 C.ar    1  UNL1        0.0384
     30 C          66.1317   93.7819   12.9019 C.ar    1  UNL1        0.0222
     31 C          65.2173   92.7875   12.2500 C.ar    1  UNL1        0.0812
     32 N          64.4855   91.7805   13.0868 N.ar    1  UNL1       -0.2477
     33 O          67.4125   95.8087    9.7394 O.3     1  UNL1       -0.4714
     34 C          67.1815   95.8629    8.2582 C.3     1  UNL1        0.2525
@<TRIPOS>BOND
     1    19    20    1
     2    20    21    3
     3    21    18    1
     4    18     1    1
     5     1     2   ar
     6     2     9    1
     7     9    10    1
     8    10    11    1
     9    11    12    1
    10    12    13    1
    11    13    14    1
    12    13    15    1
    13     2     3   ar
    14     3     4   ar
    15     4     5    2
    16     4     6   ar
    17     6    22    1
    18    22    23    1
    19    23    24   ar
    20    24    25   ar
    21    25    26   ar
    22    26    27   ar
    23    27    28   ar
    24    28    33    1
    25    33    34    1
    26    28    29   ar
    27    29    30   ar
    28    30    31   ar
    29    31    32   ar
    30     6     7   ar
    31     7     8    2
    32     7     1   ar
    33    15     9    1
    34    32    23   ar
    35    31    26   ar
    36    14    16    1
    37    14    17    1
@<TRIPOS>MOLECULE
*****
 34 37 0 0 0
SMALL
GASTEIGER

@<TRIPOS>ATOM
      1 N          63.3400   85.4306   13.7424 N.ar    1  UNL1       -0.2570
      2 C          63.0064   84.4124   14.7921 C.ar    1  UNL1        0.1213
      3 C          62.8862   84.8277   16.2285 C.ar    1  UNL1        0.0935
      4 C          63.0998   86.2612   16.6151 C.ar    1  UNL1        0.2674
      5 O          62.9796   86.6765   18.0514 O.2     1  UNL1       -0.2667
      6 N          63.4334   87.2794   15.5654 N.ar    1  UNL1       -0.2428
      7 C          63.5536   86.8641   14.1290 C.ar    1  UNL1        0.3357
      8 O          63.8872   87.8823   13.0793 O.2     1  UNL1       -0.2461
      9 N          62.7928   82.9789   14.4056 N.pl3   1  UNL1       -0.2930
     10 C          63.9427   82.1594   13.8991 C.3     1  UNL1        0.0922
     11 C          63.7291   80.7259   13.5125 C.3     1  UNL1        0.0229
     12 C          62.3658   80.1119   13.6323 C.3     1  UNL1        0.0190
     13 C          61.2161   80.9313   14.1388 C.3     1  UNL1        0.0709
     14 N          59.8528   80.3173   14.2586 N.3     1  UNL1       -0.3208
     15 C          61.4295   82.3649   14.5254 C.3     1  UNL1        0.1075
     16 H          59.1972   81.0120   14.6163 H       1  UNL1        0.1189
     17 H          59.8919   79.5249   14.8997 H       1  UNL1        0.1189
     18 C          63.4602   85.0153   12.3061 C.3     1  UNL1        0.1879
     19 C          60.4903   86.5127    9.2750 C.3     1  UNL1        0.0900
     20 C          61.4802   86.0136   10.2854 C.1     1  UNL1       -0.0881
     21 C          62.4702   85.5145   11.2957 C.1     1  UNL1       -0.0655
     22 C          63.6470   88.7129   15.9520 C.3     1  UNL1        0.1592
     23 C          64.0350   89.7207   14.9109 C.ar    1  UNL1        0.0820
     24 C          63.0192   90.2022   13.9177 C.ar    1  UNL1        0.0167
     25 C          63.4073   91.2099   12.8767 C.ar    1  UNL1        0.0029
     26 C          64.8111   91.7362   12.8288 C.ar    1  UNL1        0.0207
     27 C          65.1992   92.7440   11.7877 C.ar    1  UNL1        0.0384
     28 C          66.6030   93.2703   11.7397 C.ar    1  UNL1        0.1388
     29 C          67.6188   92.7887   12.7329 C.ar    1  UNL1        0.0384
     30 C          67.2307   91.7810   13.7740 C.ar    1  UNL1        0.0222
     31 C          65.8269   91.2547   13.8219 C.ar    1  UNL1        0.0812
     32 N          65.4388   90.2470   14.8629 N.ar    1  UNL1       -0.2477
     33 O          66.9911   94.2780   10.6987 O.3     1  UNL1       -0.4714
     34 C          67.5288   93.8202    9.3753 C.3     1  UNL1        0.2525
@<TRIPOS>BOND
     1    19    20    1
     2    20    21    3
     3    21    18    1
     4    18     1    1
     5     1     2   ar
     6     2     9    1
     7     9    10    1
     8    10    11    1
     9    11    12    1
    10    12    13    1
    11    13    14    1
    12    13    15    1
    13     2     3   ar
    14     3     4   ar
    15     4     5    2
    16     4     6   ar
    17     6    22    1
    18    22    23    1
    19    23    24   ar
    20    24    25   ar
    21    25    26   ar
    22    26    27   ar
    23    27    28   ar
    24    28    33    1
    25    33    34    1
    26    28    29   ar
    27    29    30   ar
    28    30    31   ar
    29    31    32   ar
    30     6     7   ar
    31     7     8    2
    32     7     1   ar
    33    15     9    1
    34    32    23   ar
    35    31    26   ar
    36    14    16    1
    37    14    17    1
