@<TRIPOS>MOLECULE
*****
 34 36 0 0 0
SMALL
GASTEIGER

@<TRIPOS>ATOM
      1 C          63.8602   88.8914   15.2652 C.ar    1  UNL1        0.1508
      2 C          63.1318   89.2862   16.5157 C.ar    1  UNL1        0.0778
      3 CL         62.7914   90.7261   16.7626 Cl      1  UNL1       -0.0808
      4 C          62.7439   88.2411   17.5193 C.ar    1  UNL1        0.0142
      5 C          63.0843   86.8012   17.2725 C.ar    1  UNL1        0.0187
      6 C          63.8127   86.4065   16.0221 C.ar    1  UNL1        0.0870
      7 C          64.2006   87.4516   15.0184 C.ar    1  UNL1        0.1650
      8 O          64.9290   87.0568   13.7679 O.3     1  UNL1       -0.5032
      9 H          65.1416   86.1574   13.6138 H       1  UNL1        0.2923
     10 N          64.1531   84.9666   15.7752 N.am    1  UNL1       -0.2656
     11 C          63.8536   84.3426   14.4444 C.2     1  UNL1        0.3083
     12 O          63.2136   85.1586   13.3605 O.2     1  UNL1       -0.2521
     13 N          64.1940   82.9028   14.1975 N.am    1  UNL1       -0.2672
     14 H          64.5731   84.4311   16.4866 H       1  UNL1        0.1565
     15 H          64.6140   82.3673   14.9089 H       1  UNL1        0.1564
     16 C          63.8944   82.2788   12.8668 C.ar    1  UNL1        0.0644
     17 C          64.2398   83.0075   11.6020 C.ar    1  UNL1        0.0157
     18 C          63.9403   82.3835   10.2712 C.ar    1  UNL1        0.0036
     19 C          63.2953   81.0309   10.2052 C.ar    1  UNL1        0.0306
     20 C          62.9499   80.3022   11.4701 C.ar    1  UNL1        0.1518
     21 F          62.3049   78.9496   11.4041 F       1  UNL1       -0.2032
     22 C          63.2494   80.9262   12.8008 C.ar    1  UNL1        0.0985
     23 CL         62.9040   80.1975   14.0656 Cl      1  UNL1       -0.0786
     24 S          64.2481   89.9365   14.2616 S.O2    1  UNL1        0.0108
     25 O          65.5977   90.0540   14.9056 O.2     1  UNL1       -0.1686
     26 O          62.8985   89.8190   13.6176 O.2     1  UNL1       -0.1686
     27 N          65.4119   93.0718   11.2507 N.3     1  UNL1       -0.2726
     28 C          64.3447   92.0717   10.9177 C.3     1  UNL1        0.0739
     29 C          63.9568   91.0266   11.9214 C.3     1  UNL1        0.0413
     30 C          64.6360   90.9816   13.2580 C.3     1  UNL1        0.1367
     31 C          65.7032   91.9817   13.5909 C.3     1  UNL1        0.0413
     32 C          66.0911   93.0268   12.5873 C.3     1  UNL1        0.0739
     33 C          67.1656   94.0914    9.6275 C.3     1  UNL1        0.0188
     34 C          65.7998   94.1169   10.2471 C.3     1  UNL1        0.0721
@<TRIPOS>BOND
     1    33    34    1
     2    34    27    1
     3    27    28    1
     4    28    29    1
     5    29    30    1
     6    30    24    1
     7    24    25    2
     8    24    26    2
     9    24     1    1
    10     1     2   ar
    11     2     3    1
    12     2     4   ar
    13     4     5   ar
    14     5     6   ar
    15     6    10    1
    16    10    11   am
    17    11    12    2
    18    11    13   am
    19    13    16    1
    20    16    17   ar
    21    17    18   ar
    22    18    19   ar
    23    19    20   ar
    24    20    21    1
    25    20    22   ar
    26    22    23    1
    27     6     7   ar
    28     7     8    1
    29    30    31    1
    30    31    32    1
    31    32    27    1
    32     7     1   ar
    33    22    16   ar
    34    10    14    1
    35    13    15    1
    36     8     9    1
@<TRIPOS>MOLECULE
*****
 34 36 0 0 0
SMALL
GASTEIGER

@<TRIPOS>ATOM
      1 C          61.9069   87.4300   11.0411 C.ar    1  UNL1        0.1508
      2 C          60.8633   87.7303   10.0063 C.ar    1  UNL1        0.0778
      3 CL         60.1049   86.6097    9.3588 Cl      1  UNL1       -0.0808
      4 C          60.5781   89.1511    9.6190 C.ar    1  UNL1        0.0142
      5 C          61.3365   90.2716   10.2664 C.ar    1  UNL1        0.0187
      6 C          62.3801   89.9714   11.3012 C.ar    1  UNL1        0.0870
      7 C          62.6653   88.5506   11.6885 C.ar    1  UNL1        0.1650
      8 O          63.7089   88.2504   12.7233 O.3     1  UNL1       -0.5032
      9 H          64.1826   88.9503   13.1278 H       1  UNL1        0.2923
     10 N          63.1385   91.0919   11.9487 N.am    1  UNL1       -0.2656
     11 C          64.0594   91.9463   11.1289 C.2     1  UNL1        0.3083
     12 O          64.2218   91.6801    9.6616 O.2     1  UNL1       -0.2521
     13 N          64.8178   93.0668   11.7763 N.am    1  UNL1       -0.2672
     14 H          63.0319   91.2666   12.9117 H       1  UNL1        0.1565
     15 H          64.7112   93.2415   12.7393 H       1  UNL1        0.1564
     16 C          65.7387   93.9212   10.9566 C.ar    1  UNL1        0.0644
     17 C          65.3543   95.3321   10.6229 C.ar    1  UNL1        0.0157
     18 C          66.2752   96.1865    9.8032 C.ar    1  UNL1        0.0036
     19 C          67.5805   95.6299    9.3170 C.ar    1  UNL1        0.0306
     20 C          67.9649   94.2188    9.6506 C.ar    1  UNL1        0.1518
     21 F          69.2702   93.6622    9.1645 F       1  UNL1       -0.2032
     22 C          67.0440   93.3645   10.4704 C.ar    1  UNL1        0.0985
     23 CL         67.4284   91.9535   10.8040 Cl      1  UNL1       -0.0786
     24 S          62.1921   86.0093   11.4284 S.O2    1  UNL1        0.0108
     25 O          62.7992   85.7633   10.0790 O.2     1  UNL1       -0.1686
     26 O          61.5850   86.2552   12.7778 O.2     1  UNL1       -0.1686
     27 N          63.0477   81.7469   12.5904 N.3     1  UNL1       -0.2726
     28 C          62.5598   82.7216   13.6207 C.3     1  UNL1        0.0739
     29 C          62.2746   84.1424   13.2334 C.3     1  UNL1        0.0413
     30 C          62.4773   84.5885   11.8157 C.3     1  UNL1        0.1367
     31 C          62.9652   83.6137   10.7853 C.3     1  UNL1        0.0413
     32 C          63.2504   82.1929   11.1727 C.3     1  UNL1        0.0739
     33 C          62.2852   79.5159   13.6819 C.3     1  UNL1        0.0188
     34 C          63.3329   80.3261   12.9777 C.3     1  UNL1        0.0721
@<TRIPOS>BOND
     1    33    34    1
     2    34    27    1
     3    27    28    1
     4    28    29    1
     5    29    30    1
     6    30    24    1
     7    24    25    2
     8    24    26    2
     9    24     1    1
    10     1     2   ar
    11     2     3    1
    12     2     4   ar
    13     4     5   ar
    14     5     6   ar
    15     6    10    1
    16    10    11   am
    17    11    12    2
    18    11    13   am
    19    13    16    1
    20    16    17   ar
    21    17    18   ar
    22    18    19   ar
    23    19    20   ar
    24    20    21    1
    25    20    22   ar
    26    22    23    1
    27     6     7   ar
    28     7     8    1
    29    30    31    1
    30    31    32    1
    31    32    27    1
    32     7     1   ar
    33    22    16   ar
    34    10    14    1
    35    13    15    1
    36     8     9    1
@<TRIPOS>MOLECULE
*****
 34 36 0 0 0
SMALL
GASTEIGER

@<TRIPOS>ATOM
      1 C          65.0188   91.7771   12.8733 C.ar    1  UNL1        0.1508
      2 C          65.7020   91.4444   14.1666 C.ar    1  UNL1        0.0778
      3 CL         66.9861   92.1273   14.5337 Cl      1  UNL1       -0.0808
      4 C          65.1011   90.4290   15.0927 C.ar    1  UNL1        0.0142
      5 C          63.8170   89.7462   14.7256 C.ar    1  UNL1        0.0187
      6 C          63.1338   90.0788   13.4323 C.ar    1  UNL1        0.0870
      7 C          63.7347   91.0943   12.5062 C.ar    1  UNL1        0.1650
      8 O          63.0514   91.4269   11.2129 O.3     1  UNL1       -0.5032
      9 H          62.2493   91.0004   10.9836 H       1  UNL1        0.2923
     10 N          61.8496   89.3960   13.0652 N.am    1  UNL1       -0.2656
     11 C          61.7022   88.7490   11.7199 C.2     1  UNL1        0.3083
     12 O          62.8389   88.7849   10.7418 O.2     1  UNL1       -0.2521
     13 N          60.4181   88.0662   11.3527 N.am    1  UNL1       -0.2672
     14 H          61.1036   89.3725   13.7071 H       1  UNL1        0.1565
     15 H          59.6721   88.0427   11.9947 H       1  UNL1        0.1564
     16 C          60.2707   87.4193   10.0075 C.ar    1  UNL1        0.0644
     17 C          59.2179   87.9022    9.0544 C.ar    1  UNL1        0.0157
     18 C          59.0705   87.2552    7.7091 C.ar    1  UNL1        0.0036
     19 C          59.9759   86.1254    7.3169 C.ar    1  UNL1        0.0306
     20 C          61.0287   85.6425    8.2701 C.ar    1  UNL1        0.1518
     21 F          61.9340   84.5127    7.8779 F       1  UNL1       -0.2032
     22 C          61.1761   86.2894    9.6153 C.ar    1  UNL1        0.0985
     23 CL         62.2289   85.8066   10.5685 Cl      1  UNL1       -0.0786
     24 S          65.6197   92.7925   11.9471 S.O2    1  UNL1        0.0108
     25 O          65.5289   93.8305   13.0263 O.2     1  UNL1       -0.1686
     26 O          65.7104   91.7546   10.8680 O.2     1  UNL1       -0.1686
     27 N          67.4224   95.8389    9.1687 N.3     1  UNL1       -0.2726
     28 C          66.5664   96.2848   10.3169 C.3     1  UNL1        0.0739
     29 C          65.9655   95.2693   11.2430 C.3     1  UNL1        0.0413
     30 C          66.2206   93.8080   11.0210 C.3     1  UNL1        0.1367
     31 C          67.0767   93.3621    9.8728 C.3     1  UNL1        0.0413
     32 C          67.6776   94.3776    8.9467 C.3     1  UNL1        0.0739
     33 C          67.6535   96.8553    6.7889 C.3     1  UNL1        0.0188
     34 C          68.0233   96.8544    8.2425 C.3     1  UNL1        0.0721
@<TRIPOS>BOND
     1    33    34    1
     2    34    27    1
     3    27    28    1
     4    28    29    1
     5    29    30    1
     6    30    24    1
     7    24    25    2
     8    24    26    2
     9    24     1    1
    10     1     2   ar
    11     2     3    1
    12     2     4   ar
    13     4     5   ar
    14     5     6   ar
    15     6    10    1
    16    10    11   am
    17    11    12    2
    18    11    13   am
    19    13    16    1
    20    16    17   ar
    21    17    18   ar
    22    18    19   ar
    23    19    20   ar
    24    20    21    1
    25    20    22   ar
    26    22    23    1
    27     6     7   ar
    28     7     8    1
    29    30    31    1
    30    31    32    1
    31    32    27    1
    32     7     1   ar
    33    22    16   ar
    34    10    14    1
    35    13    15    1
    36     8     9    1
@<TRIPOS>MOLECULE
*****
 34 36 0 0 0
SMALL
GASTEIGER

@<TRIPOS>ATOM
      1 C          57.6715   95.1087   -3.8984 C.ar    1  UNL1        0.1508
      2 C          58.3810   94.5864   -5.1125 C.ar    1  UNL1        0.0778
      3 CL         57.6220   94.3641   -6.3871 Cl      1  UNL1       -0.0808
      4 C          59.8494   94.2865   -5.0520 C.ar    1  UNL1        0.0142
      5 C          60.6084   94.5088   -3.7774 C.ar    1  UNL1        0.0187
      6 C          59.8990   95.0310   -2.5634 C.ar    1  UNL1        0.0870
      7 C          58.4305   95.3310   -2.6239 C.ar    1  UNL1        0.1650
      8 O          57.7211   95.8532   -1.4098 O.3     1  UNL1       -0.5032
      9 H          58.1952   95.9921   -0.6136 H       1  UNL1        0.2923
     10 N          60.6580   95.2533   -1.2888 N.am    1  UNL1       -0.2656
     11 C          60.6657   94.1946   -0.2261 C.2     1  UNL1        0.3083
     12 O          59.9145   92.9137   -0.4381 O.2     1  UNL1       -0.2521
     13 N          61.4247   94.4169    1.0484 N.am    1  UNL1       -0.2672
     14 H          61.1510   96.0940   -1.1497 H       1  UNL1        0.1565
     15 H          61.9177   95.2576    1.1875 H       1  UNL1        0.1564
     16 C          61.4324   93.3582    2.1111 C.ar    1  UNL1        0.0644
     17 C          60.2147   93.1373    2.9585 C.ar    1  UNL1        0.0157
     18 C          60.2224   92.0787    4.0212 C.ar    1  UNL1        0.0036
     19 C          61.4479   91.2409    4.2363 C.ar    1  UNL1        0.0306
     20 C          62.6657   91.4618    3.3888 C.ar    1  UNL1        0.1518
     21 F          63.8912   90.6241    3.6040 F       1  UNL1       -0.2032
     22 C          62.6580   92.5205    2.3262 C.ar    1  UNL1        0.0985
     23 CL         63.8757   92.7414    1.4788 Cl      1  UNL1       -0.0786
     24 S          56.2031   95.4086   -3.9590 S.O2    1  UNL1        0.0108
     25 O          56.5029   96.7594   -4.5382 O.2     1  UNL1       -0.1686
     26 O          55.9033   94.0579   -3.3797 O.2     1  UNL1       -0.1686
     27 N          51.7977   96.3085   -4.1405 N.3     1  UNL1       -0.2726
     28 C          52.6061   96.2610   -5.4031 C.3     1  UNL1        0.0739
     29 C          54.0746   95.9610   -5.3425 C.3     1  UNL1        0.0413
     30 C          54.7346   95.7086   -4.0195 C.3     1  UNL1        0.1367
     31 C          53.9262   95.7561   -2.7569 C.3     1  UNL1        0.0413
     32 C          52.4577   96.0561   -2.8174 C.3     1  UNL1        0.0739
     33 C          49.5281   96.1952   -5.3998 C.3     1  UNL1        0.0188
     34 C          50.3293   96.6085   -4.2010 C.3     1  UNL1        0.0721
@<TRIPOS>BOND
     1    33    34    1
     2    34    27    1
     3    27    28    1
     4    28    29    1
     5    29    30    1
     6    30    24    1
     7    24    25    2
     8    24    26    2
     9    24     1    1
    10     1     2   ar
    11     2     3    1
    12     2     4   ar
    13     4     5   ar
    14     5     6   ar
    15     6    10    1
    16    10    11   am
    17    11    12    2
    18    11    13   am
    19    13    16    1
    20    16    17   ar
    21    17    18   ar
    22    18    19   ar
    23    19    20   ar
    24    20    21    1
    25    20    22   ar
    26    22    23    1
    27     6     7   ar
    28     7     8    1
    29    30    31    1
    30    31    32    1
    31    32    27    1
    32     7     1   ar
    33    22    16   ar
    34    10    14    1
    35    13    15    1
    36     8     9    1
@<TRIPOS>MOLECULE
*****
 34 36 0 0 0
SMALL
GASTEIGER

@<TRIPOS>ATOM
      1 C          61.8397   87.4114   10.7804 C.ar    1  UNL1        0.1508
      2 C          61.0041   87.5617    9.5438 C.ar    1  UNL1        0.0778
      3 CL         60.4829   86.3448    8.8383 Cl      1  UNL1       -0.0808
      4 C          60.6897   88.9288    9.0127 C.ar    1  UNL1        0.0142
      5 C          61.2109   90.1456    9.7181 C.ar    1  UNL1        0.0187
      6 C          62.0465   89.9953   10.9546 C.ar    1  UNL1        0.0870
      7 C          62.3609   88.6282   11.4858 C.ar    1  UNL1        0.1650
      8 O          63.1966   88.4779   12.7224 O.3     1  UNL1       -0.5032
      9 H          63.5221   89.2381   13.1631 H       1  UNL1        0.2923
     10 N          62.5677   91.2122   11.6601 N.am    1  UNL1       -0.2656
     11 C          63.8589   91.1428   12.4205 C.2     1  UNL1        0.3083
     12 O          64.6288   89.8566   12.4753 O.2     1  UNL1       -0.2521
     13 N          64.3801   92.3596   13.1259 N.am    1  UNL1       -0.2672
     14 H          62.0624   92.0563   11.6241 H       1  UNL1        0.1565
     15 H          63.8748   93.2037   13.0899 H       1  UNL1        0.1564
     16 C          65.6713   92.2902   13.8863 C.ar    1  UNL1        0.0644
     17 C          65.6609   92.3168   15.3859 C.ar    1  UNL1        0.0157
     18 C          66.9520   92.2475   16.1463 C.ar    1  UNL1        0.0036
     19 C          68.2536   92.1515   15.4069 C.ar    1  UNL1        0.0306
     20 C          68.2640   92.1249   13.9071 C.ar    1  UNL1        0.1518
     21 F          69.5656   92.0290   13.1678 F       1  UNL1       -0.2032
     22 C          66.9729   92.1943   13.1468 C.ar    1  UNL1        0.0985
     23 CL         66.9833   92.1677   11.6471 Cl      1  UNL1       -0.0786
     24 S          62.1541   86.0442   11.3115 S.O2    1  UNL1        0.0108
     25 O          61.3020   86.3161   12.5156 O.2     1  UNL1       -0.1686
     26 O          63.0063   85.7724   10.1074 O.2     1  UNL1       -0.1686
     27 N          63.0974   81.9429   12.9050 N.3     1  UNL1       -0.2726
     28 C          63.1247   82.1979   11.4271 C.3     1  UNL1        0.0739
     29 C          62.8103   83.5650   10.8959 C.3     1  UNL1        0.0413
     30 C          62.4686   84.6771   11.8427 C.3     1  UNL1        0.1367
     31 C          62.4412   84.4221   13.3206 C.3     1  UNL1        0.0413
     32 C          62.7556   83.0550   13.8517 C.3     1  UNL1        0.0739
     33 C          62.3290   79.5426   13.5360 C.3     1  UNL1        0.0188
     34 C          63.4118   80.5758   13.4361 C.3     1  UNL1        0.0721
@<TRIPOS>BOND
     1    33    34    1
     2    34    27    1
     3    27    28    1
     4    28    29    1
     5    29    30    1
     6    30    24    1
     7    24    25    2
     8    24    26    2
     9    24     1    1
    10     1     2   ar
    11     2     3    1
    12     2     4   ar
    13     4     5   ar
    14     5     6   ar
    15     6    10    1
    16    10    11   am
    17    11    12    2
    18    11    13   am
    19    13    16    1
    20    16    17   ar
    21    17    18   ar
    22    18    19   ar
    23    19    20   ar
    24    20    21    1
    25    20    22   ar
    26    22    23    1
    27     6     7   ar
    28     7     8    1
    29    30    31    1
    30    31    32    1
    31    32    27    1
    32     7     1   ar
    33    22    16   ar
    34    10    14    1
    35    13    15    1
    36     8     9    1
@<TRIPOS>MOLECULE
*****
 34 36 0 0 0
SMALL
GASTEIGER

@<TRIPOS>ATOM
      1 C          59.4463   95.0160   -4.4384 C.ar    1  UNL1        0.1508
      2 C          60.2064   94.6647   -5.6829 C.ar    1  UNL1        0.0778
      3 CL         59.4870   94.5513   -6.9943 Cl      1  UNL1       -0.0808
      4 C          61.6859   94.4269   -5.6161 C.ar    1  UNL1        0.0142
      5 C          62.4053   94.5402   -4.3048 C.ar    1  UNL1        0.0187
      6 C          61.6452   94.8915   -3.0603 C.ar    1  UNL1        0.0870
      7 C          60.1657   95.1293   -3.1271 C.ar    1  UNL1        0.1650
      8 O          59.4056   95.4806   -1.8825 O.3     1  UNL1       -0.5032
      9 H          59.8550   95.5514   -1.0634 H       1  UNL1        0.2923
     10 N          62.3646   95.0049   -1.7489 N.am    1  UNL1       -0.2656
     11 C          62.0969   94.0106   -0.6582 C.2     1  UNL1        0.3083
     12 O          61.1097   92.9029   -0.8789 O.2     1  UNL1       -0.2521
     13 N          62.8162   94.1239    0.6531 N.am    1  UNL1       -0.2672
     14 H          63.0125   95.7319   -1.6042 H       1  UNL1        0.1565
     15 H          63.4641   94.8509    0.7979 H       1  UNL1        0.1564
     16 C          62.5484   93.1297    1.7439 C.ar    1  UNL1        0.0644
     17 C          63.6009   92.1302    2.1226 C.ar    1  UNL1        0.0157
     18 C          63.3331   91.1359    3.2133 C.ar    1  UNL1        0.0036
     19 C          62.0129   91.1411    3.9253 C.ar    1  UNL1        0.0306
     20 C          60.9604   92.1406    3.5466 C.ar    1  UNL1        0.1518
     21 F          59.6402   92.1457    4.2586 F       1  UNL1       -0.2032
     22 C          61.2282   93.1349    2.4559 C.ar    1  UNL1        0.0985
     23 CL         60.1757   94.1343    2.0772 Cl      1  UNL1       -0.0786
     24 S          57.9668   95.2538   -4.5052 S.O2    1  UNL1        0.0108
     25 O          58.2138   96.6804   -4.8974 O.2     1  UNL1       -0.1686
     26 O          57.7197   93.8272   -4.1130 O.2     1  UNL1       -0.1686
     27 N          53.5282   95.9674   -4.7056 N.3     1  UNL1       -0.2726
     28 C          54.3207   95.8121   -5.9696 C.3     1  UNL1        0.0739
     29 C          55.8002   95.5743   -5.9028 C.3     1  UNL1        0.0413
     30 C          56.4873   95.4917   -4.5720 C.3     1  UNL1        0.1367
     31 C          55.6948   95.6469   -3.3080 C.3     1  UNL1        0.0413
     32 C          54.2153   95.8848   -3.3748 C.3     1  UNL1        0.0739
     33 C          51.2232   96.1517   -3.5211 C.3     1  UNL1        0.0188
     34 C          52.0487   96.2052   -4.7724 C.3     1  UNL1        0.0721
@<TRIPOS>BOND
     1    33    34    1
     2    34    27    1
     3    27    28    1
     4    28    29    1
     5    29    30    1
     6    30    24    1
     7    24    25    2
     8    24    26    2
     9    24     1    1
    10     1     2   ar
    11     2     3    1
    12     2     4   ar
    13     4     5   ar
    14     5     6   ar
    15     6    10    1
    16    10    11   am
    17    11    12    2
    18    11    13   am
    19    13    16    1
    20    16    17   ar
    21    17    18   ar
    22    18    19   ar
    23    19    20   ar
    24    20    21    1
    25    20    22   ar
    26    22    23    1
    27     6     7   ar
    28     7     8    1
    29    30    31    1
    30    31    32    1
    31    32    27    1
    32     7     1   ar
    33    22    16   ar
    34    10    14    1
    35    13    15    1
    36     8     9    1
@<TRIPOS>MOLECULE
*****
 34 36 0 0 0
SMALL
GASTEIGER

@<TRIPOS>ATOM
      1 C          62.7533   93.9636    0.3104 C.ar    1  UNL1        0.1508
      2 C          63.9865   94.7669    0.5999 C.ar    1  UNL1        0.0778
      3 CL         64.4542   94.9396    2.0147 Cl      1  UNL1       -0.0808
      4 C          64.7522   95.3974   -0.5254 C.ar    1  UNL1        0.0142
      5 C          64.2846   95.2247   -1.9401 C.ar    1  UNL1        0.0187
      6 C          63.0513   94.4215   -2.2295 C.ar    1  UNL1        0.0870
      7 C          62.2857   93.7910   -1.1043 C.ar    1  UNL1        0.1650
      8 O          61.0523   92.9877   -1.3938 O.3     1  UNL1       -0.5032
      9 H          60.7603   92.8798   -2.2776 H       1  UNL1        0.2923
     10 N          62.5837   94.2488   -3.6443 N.am    1  UNL1       -0.2656
     11 C          61.2358   94.7618   -4.0566 C.2     1  UNL1        0.3083
     12 O          60.3555   95.4475   -3.0540 O.2     1  UNL1       -0.2521
     13 N          60.7681   94.5891   -5.4713 N.am    1  UNL1       -0.2672
     14 H          63.1614   93.7987   -4.3023 H       1  UNL1        0.1565
     15 H          61.3458   94.1390   -6.1292 H       1  UNL1        0.1564
     16 C          59.4201   95.1021   -5.8835 C.ar    1  UNL1        0.0644
     17 C          59.3135   96.3424   -6.7203 C.ar    1  UNL1        0.0157
     18 C          57.9656   96.8554   -7.1325 C.ar    1  UNL1        0.0036
     19 C          56.7243   96.1281   -6.7080 C.ar    1  UNL1        0.0306
     20 C          56.8309   94.8878   -5.8711 C.ar    1  UNL1        0.1518
     21 F          55.5897   94.1605   -5.4466 F       1  UNL1       -0.2032
     22 C          58.1788   94.3747   -5.4589 C.ar    1  UNL1        0.0985
     23 CL         58.2855   93.1345   -4.6221 Cl      1  UNL1       -0.0786
     24 S          61.9876   93.3331    1.4357 S.O2    1  UNL1        0.0108
     25 O          61.0027   94.4638    1.3991 O.2     1  UNL1       -0.1686
     26 O          62.9725   92.2023    1.4722 O.2     1  UNL1       -0.1686
     27 N          59.6906   91.4415    4.8114 N.3     1  UNL1       -0.2726
     28 C          58.9990   92.3782    3.8659 C.3     1  UNL1        0.0739
     29 C          59.7646   93.0088    2.7407 C.3     1  UNL1        0.0413
     30 C          61.2220   92.7025    2.5609 C.3     1  UNL1        0.1367
     31 C          61.9136   91.7658    3.5064 C.3     1  UNL1        0.0413
     32 C          61.1480   91.1352    4.6316 C.3     1  UNL1        0.0739
     33 C          59.3506   89.4791    6.4798 C.3     1  UNL1        0.0188
     34 C          58.9250   90.8109    5.9367 C.3     1  UNL1        0.0721
@<TRIPOS>BOND
     1    33    34    1
     2    34    27    1
     3    27    28    1
     4    28    29    1
     5    29    30    1
     6    30    24    1
     7    24    25    2
     8    24    26    2
     9    24     1    1
    10     1     2   ar
    11     2     3    1
    12     2     4   ar
    13     4     5   ar
    14     5     6   ar
    15     6    10    1
    16    10    11   am
    17    11    12    2
    18    11    13   am
    19    13    16    1
    20    16    17   ar
    21    17    18   ar
    22    18    19   ar
    23    19    20   ar
    24    20    21    1
    25    20    22   ar
    26    22    23    1
    27     6     7   ar
    28     7     8    1
    29    30    31    1
    30    31    32    1
    31    32    27    1
    32     7     1   ar
    33    22    16   ar
    34    10    14    1
    35    13    15    1
    36     8     9    1
@<TRIPOS>MOLECULE
*****
 34 36 0 0 0
SMALL
GASTEIGER

@<TRIPOS>ATOM
      1 C          62.0260   89.3672   11.4598 C.ar    1  UNL1        0.1508
      2 C          60.7622   89.9818   10.9353 C.ar    1  UNL1        0.0778
      3 CL         60.4727   91.4319   11.1870 Cl      1  UNL1       -0.0808
      4 C          59.7879   89.1462   10.1591 C.ar    1  UNL1        0.0142
      5 C          60.0774   87.6961    9.9074 C.ar    1  UNL1        0.0187
      6 C          61.3411   87.0816   10.4320 C.ar    1  UNL1        0.0870
      7 C          62.3155   87.9171   11.2082 C.ar    1  UNL1        0.1650
      8 O          63.5793   87.3025   11.7327 O.3     1  UNL1       -0.5032
      9 H          63.7601   86.3967   11.5755 H       1  UNL1        0.2923
     10 N          61.6306   85.6314   10.1803 N.am    1  UNL1       -0.2656
     11 C          61.9882   84.7286   11.3236 C.2     1  UNL1        0.3083
     12 O          62.0562   85.2760   12.7185 O.2     1  UNL1       -0.2521
     13 N          62.2777   83.2785   11.0720 N.am    1  UNL1       -0.2672
     14 H          61.5860   85.2722    9.2648 H       1  UNL1        0.1565
     15 H          62.2330   82.9193   10.1565 H       1  UNL1        0.1564
     16 C          62.6352   82.3757   12.2153 C.ar    1  UNL1        0.0644
     17 C          61.9337   81.0601   12.3798 C.ar    1  UNL1        0.0157
     18 C          62.2913   80.1573   13.5231 C.ar    1  UNL1        0.0036
     19 C          63.3503   80.5701   14.5019 C.ar    1  UNL1        0.0306
     20 C          64.0519   81.8857   14.3373 C.ar    1  UNL1        0.1518
     21 F          65.1110   82.2985   15.3161 F       1  UNL1       -0.2032
     22 C          63.6944   82.7885   13.1940 C.ar    1  UNL1        0.0985
     23 CL         64.3958   84.1041   13.0295 Cl      1  UNL1       -0.0786
     24 S          63.0004   90.2028   12.2361 S.O2    1  UNL1        0.0108
     25 O          62.4691   89.6320   13.5174 O.2     1  UNL1       -0.1686
     26 O          63.5316   90.7736   10.9547 O.2     1  UNL1       -0.1686
     27 N          65.9234   92.7095   14.5647 N.3     1  UNL1       -0.2726
     28 C          65.8130   92.8731   13.0777 C.3     1  UNL1        0.0739
     29 C          64.8387   92.0375   12.3015 C.3     1  UNL1        0.0413
     30 C          63.9747   91.0384   13.0123 C.3     1  UNL1        0.1367
     31 C          64.0850   90.8748   14.4992 C.3     1  UNL1        0.0413
     32 C          65.0593   91.7104   15.2754 C.3     1  UNL1        0.0739
     33 C          68.0971   92.9046   15.9741 C.3     1  UNL1        0.0188
     34 C          66.8977   93.5451   15.3409 C.3     1  UNL1        0.0721
@<TRIPOS>BOND
     1    33    34    1
     2    34    27    1
     3    27    28    1
     4    28    29    1
     5    29    30    1
     6    30    24    1
     7    24    25    2
     8    24    26    2
     9    24     1    1
    10     1     2   ar
    11     2     3    1
    12     2     4   ar
    13     4     5   ar
    14     5     6   ar
    15     6    10    1
    16    10    11   am
    17    11    12    2
    18    11    13   am
    19    13    16    1
    20    16    17   ar
    21    17    18   ar
    22    18    19   ar
    23    19    20   ar
    24    20    21    1
    25    20    22   ar
    26    22    23    1
    27     6     7   ar
    28     7     8    1
    29    30    31    1
    30    31    32    1
    31    32    27    1
    32     7     1   ar
    33    22    16   ar
    34    10    14    1
    35    13    15    1
    36     8     9    1
@<TRIPOS>MOLECULE
*****
 34 36 0 0 0
SMALL
GASTEIGER

@<TRIPOS>ATOM
      1 C          61.7258   87.5836   10.5603 C.ar    1  UNL1        0.1508
      2 C          60.8775   87.9964    9.3942 C.ar    1  UNL1        0.0778
      3 CL         60.3635   86.9621    8.4371 Cl      1  UNL1       -0.0808
      4 C          60.5432   89.4437    9.1851 C.ar    1  UNL1        0.0142
      5 C          61.0571   90.4780   10.1421 C.ar    1  UNL1        0.0187
      6 C          61.9054   90.0652   11.3082 C.ar    1  UNL1        0.0870
      7 C          62.2398   88.6179   11.5173 C.ar    1  UNL1        0.1650
      8 O          63.0881   88.2051   12.6835 O.3     1  UNL1       -0.5032
      9 H          63.4092   88.8512   13.2813 H       1  UNL1        0.2923
     10 N          62.4194   91.0995   12.2653 N.am    1  UNL1       -0.2656
     11 C          63.8757   91.1324   12.6231 C.2     1  UNL1        0.3083
     12 O          64.8180   90.1308   12.0239 O.2     1  UNL1       -0.2521
     13 N          64.3897   92.1667   13.5802 N.am    1  UNL1       -0.2672
     14 H          61.8009   91.7569   12.6585 H       1  UNL1        0.1565
     15 H          63.7713   92.8240   13.9734 H       1  UNL1        0.1564
     16 C          65.8460   92.1995   13.9380 C.ar    1  UNL1        0.0644
     17 C          66.8845   92.2006   12.8557 C.ar    1  UNL1        0.0157
     18 C          68.3408   92.2335   13.2135 C.ar    1  UNL1        0.0036
     19 C          68.7587   92.2651   14.6538 C.ar    1  UNL1        0.0306
     20 C          67.7202   92.2640   15.7362 C.ar    1  UNL1        0.1518
     21 F          68.1381   92.2957   17.1765 F       1  UNL1       -0.2032
     22 C          66.2639   92.2312   15.3784 C.ar    1  UNL1        0.0985
     23 CL         65.2254   92.2301   16.4607 Cl      1  UNL1       -0.0786
     24 S          62.0602   86.1363   10.7694 S.O2    1  UNL1        0.0108
     25 O          61.2358   86.1270   12.0225 O.2     1  UNL1       -0.1686
     26 O          62.8845   86.1457    9.5163 O.2     1  UNL1       -0.1686
     27 N          63.0632   81.7946   11.3967 N.3     1  UNL1       -0.2726
     28 C          63.3001   82.4336   10.0605 C.3     1  UNL1        0.0739
     29 C          62.9658   83.8809    9.8514 C.3     1  UNL1        0.0413
     30 C          62.3945   84.6891   10.9785 C.3     1  UNL1        0.1367
     31 C          62.1576   84.0501   12.3147 C.3     1  UNL1        0.0413
     32 C          62.4920   82.6029   12.5238 C.3     1  UNL1        0.0739
     33 C          63.0462   79.3370   10.5545 C.3     1  UNL1        0.0188
     34 C          63.3976   80.3474   11.6058 C.3     1  UNL1        0.0721
@<TRIPOS>BOND
     1    33    34    1
     2    34    27    1
     3    27    28    1
     4    28    29    1
     5    29    30    1
     6    30    24    1
     7    24    25    2
     8    24    26    2
     9    24     1    1
    10     1     2   ar
    11     2     3    1
    12     2     4   ar
    13     4     5   ar
    14     5     6   ar
    15     6    10    1
    16    10    11   am
    17    11    12    2
    18    11    13   am
    19    13    16    1
    20    16    17   ar
    21    17    18   ar
    22    18    19   ar
    23    19    20   ar
    24    20    21    1
    25    20    22   ar
    26    22    23    1
    27     6     7   ar
    28     7     8    1
    29    30    31    1
    30    31    32    1
    31    32    27    1
    32     7     1   ar
    33    22    16   ar
    34    10    14    1
    35    13    15    1
    36     8     9    1
