@<TRIPOS>MOLECULE
*****
 30 32 0 0 0
SMALL
GASTEIGER

@<TRIPOS>ATOM
      1 C          59.6118   88.4908    7.9209 C.ar    1  UNL1        0.1593
      2 C          59.7205   87.0003    7.7928 C.ar    1  UNL1        0.1357
      3 N          60.5815   86.2264    8.7467 N.ar    1  UNL1       -0.2390
      4 C          61.3337   86.9431    9.8286 C.ar    1  UNL1        0.1030
      5 C          62.2531   86.4511   10.9068 C.ar    1  UNL1        0.0895
      6 C          62.7125   87.6376   11.7013 C.ar    1  UNL1        0.0823
      7 N          62.0771   88.8629   11.1141 N.ar    1  UNL1       -0.3189
      8 C          61.2249   88.4336    9.9566 C.ar    1  UNL1        0.0814
      9 C          60.3640   89.2075    9.0028 C.ar    1  UNL1        0.0572
     10 C          62.6443   85.0233   11.1482 C.2     1  UNL1        0.2489
     11 O          63.2467   84.2129   10.0391 O.2     1  UNL1       -0.2700
     12 N          62.4331   84.4058   12.4988 N.am    1  UNL1       -0.2984
     13 H          62.0376   84.9377   13.2269 H       1  UNL1        0.1498
     14 C          62.8243   82.9780   12.7402 C.3     1  UNL1        0.1215
     15 C          64.2720   82.6099   12.8774 C.3     1  UNL1        0.1583
     16 O          65.1556   82.5771   11.6658 O.3     1  UNL1       -0.3802
     17 H          64.8635   81.8681   11.0717 H       1  UNL1        0.2105
     18 C          59.3824   90.0654    5.8670 C.3     1  UNL1        0.2525
     19 O          58.7508   89.2647    6.9670 O.3     1  UNL1       -0.4698
     20 C          62.2614   90.2703   11.5991 C.3     1  UNL1        0.1517
     21 C          63.1502   90.5479   12.7751 C.ar    1  UNL1        0.0823
     22 N          62.7937   90.0084   14.1285 N.ar    1  UNL1       -0.2266
     23 C          63.6824   90.2860   15.3046 C.ar    1  UNL1        0.1998
     24 N          64.9277   91.1033   15.1272 N.ar    1  UNL1       -0.2093
     25 C          65.2842   91.6428   13.7737 C.ar    1  UNL1        0.1307
     26 C          64.3954   91.3651   12.5976 C.ar    1  UNL1        0.0253
     27 C          64.7520   91.9047   11.2442 C.3     1  UNL1        0.0353
     28 N          66.5294   92.4600   13.5963 N.pl3   1  UNL1       -0.2899
     29 C          66.4599   93.9570   13.6620 C.3     1  UNL1        0.1136
     30 C          67.8443   91.7803   13.3533 C.3     1  UNL1        0.1136
@<TRIPOS>BOND
     1    18    19    1
     2    19     1    1
     3     1     2   ar
     4     2     3   ar
     5     3     4   ar
     6     4     5   ar
     7     5    10    1
     8    10    11    2
     9    10    12   am
    10    12    14    1
    11    14    15    1
    12    15    16    1
    13     5     6   ar
    14     6     7   ar
    15     7    20    1
    16    20    21    1
    17    21    22   ar
    18    22    23   ar
    19    23    24   ar
    20    24    25   ar
    21    25    28    1
    22    28    29    1
    23    28    30    1
    24    25    26   ar
    25    26    27    1
    26     7     8   ar
    27     8     9   ar
    28     9     1   ar
    29     8     4   ar
    30    26    21   ar
    31    12    13    1
    32    16    17    1
@<TRIPOS>MOLECULE
*****
 30 32 0 0 0
SMALL
GASTEIGER

@<TRIPOS>ATOM
      1 C          61.2340   88.4689    9.6663 C.ar    1  UNL1        0.1593
      2 C          61.3118   86.9758    9.7875 C.ar    1  UNL1        0.1357
      3 N          62.0620   86.3541   10.9280 N.ar    1  UNL1       -0.2390
      4 C          62.7343   87.2253   11.9472 C.ar    1  UNL1        0.1030
      5 C          63.5395   86.9010   13.1705 C.ar    1  UNL1        0.0895
      6 C          63.9593   88.1936   13.8053 C.ar    1  UNL1        0.0823
      7 N          63.4136   89.3168   12.9744 N.ar    1  UNL1       -0.3189
      8 C          62.6565   88.7183   11.8259 C.ar    1  UNL1        0.0814
      9 C          61.9063   89.3401   10.6855 C.ar    1  UNL1        0.0572
     10 C          63.8673   85.5255   13.6711 C.2     1  UNL1        0.2489
     11 O          64.3018   85.3287   15.0932 O.2     1  UNL1       -0.2700
     12 N          63.7605   84.3468   12.7496 N.am    1  UNL1       -0.2984
     13 H          63.4753   84.4759   11.8162 H       1  UNL1        0.1498
     14 C          64.0883   82.9713   13.2502 C.3     1  UNL1        0.1215
     15 C          63.0966   82.2229   14.0906 C.3     1  UNL1        0.1583
     16 O          62.7986   82.6827   15.4870 O.3     1  UNL1       -0.3802
     17 H          63.5901   82.5777   16.0378 H       1  UNL1        0.2105
     18 C          59.4747   88.2842    7.7635 C.3     1  UNL1        0.2525
     19 O          60.4838   89.0906    8.5258 O.3     1  UNL1       -0.4698
     20 C          63.5933   90.7813   13.2443 C.3     1  UNL1        0.1517
     21 C          64.9559   91.4006   13.1448 C.ar    1  UNL1        0.0823
     22 N          65.8895   91.3516   14.3177 N.ar    1  UNL1       -0.2266
     23 C          67.2521   91.9709   14.2182 C.ar    1  UNL1        0.1998
     24 N          67.6811   92.6391   12.9456 N.ar    1  UNL1       -0.2093
     25 C          66.7473   92.6881   11.7726 C.ar    1  UNL1        0.1307
     26 C          65.3848   92.0688   11.8722 C.ar    1  UNL1        0.0253
     27 C          64.4512   92.1178   10.6991 C.3     1  UNL1        0.0353
     28 N          67.1763   93.3563   10.5000 N.pl3   1  UNL1       -0.2899
     29 C          67.9671   92.5911    9.4807 C.3     1  UNL1        0.1136
     30 C          66.8146   94.7898   10.2468 C.3     1  UNL1        0.1136
@<TRIPOS>BOND
     1    18    19    1
     2    19     1    1
     3     1     2   ar
     4     2     3   ar
     5     3     4   ar
     6     4     5   ar
     7     5    10    1
     8    10    11    2
     9    10    12   am
    10    12    14    1
    11    14    15    1
    12    15    16    1
    13     5     6   ar
    14     6     7   ar
    15     7    20    1
    16    20    21    1
    17    21    22   ar
    18    22    23   ar
    19    23    24   ar
    20    24    25   ar
    21    25    28    1
    22    28    29    1
    23    28    30    1
    24    25    26   ar
    25    26    27    1
    26     7     8   ar
    27     8     9   ar
    28     9     1   ar
    29     8     4   ar
    30    26    21   ar
    31    12    13    1
    32    16    17    1
@<TRIPOS>MOLECULE
*****
 30 32 0 0 0
SMALL
GASTEIGER

@<TRIPOS>ATOM
      1 C          63.9785   86.4454   14.0262 C.ar    1  UNL1        0.1593
      2 C          63.2944   85.5914   13.0003 C.ar    1  UNL1        0.1357
      3 N          62.6021   86.2306   11.8332 N.ar    1  UNL1       -0.2390
      4 C          62.5939   87.7239   11.6920 C.ar    1  UNL1        0.1030
      5 C          61.9979   88.6309   10.6566 C.ar    1  UNL1        0.0895
      6 C          62.3136   90.0456   11.0427 C.ar    1  UNL1        0.0823
      7 N          63.1047   90.0129   12.3167 N.ar    1  UNL1       -0.3189
      8 C          63.2779   88.5779   12.7180 C.ar    1  UNL1        0.0814
      9 C          63.9702   87.9387   13.8851 C.ar    1  UNL1        0.0572
     10 C          61.2223   88.1991    9.4475 C.2     1  UNL1        0.2489
     11 O          60.4876   89.2159    8.6252 O.2     1  UNL1       -0.2700
     12 N          61.1815   86.7504    9.0606 N.am    1  UNL1       -0.2984
     13 H          61.6638   86.0830    9.6003 H       1  UNL1        0.1498
     14 C          60.4060   86.3186    7.8515 C.3     1  UNL1        0.1215
     15 C          58.9299   86.5743    7.7765 C.3     1  UNL1        0.1583
     16 O          58.4223   87.9075    7.3128 O.3     1  UNL1       -0.3802
     17 H          58.6729   88.5900    7.9549 H       1  UNL1        0.2105
     18 C          63.8988   85.4830   16.4381 C.3     1  UNL1        0.2525
     19 O          64.6707   85.8062   15.1933 O.3     1  UNL1       -0.4698
     20 C          63.6303   91.2056   13.0590 C.3     1  UNL1        0.1517
     21 C          65.0747   91.5903   12.9337 C.ar    1  UNL1        0.0823
     22 N          66.0148   91.3582   14.0793 N.ar    1  UNL1       -0.2266
     23 C          67.4592   91.7428   13.9540 C.ar    1  UNL1        0.1998
     24 N          67.9636   92.3596   12.6831 N.ar    1  UNL1       -0.2093
     25 C          67.0234   92.5917   11.5375 C.ar    1  UNL1        0.1307
     26 C          65.5790   92.2071   11.6628 C.ar    1  UNL1        0.0253
     27 C          64.6390   92.4392   10.5172 C.3     1  UNL1        0.0353
     28 N          67.5278   93.2085   10.2666 N.pl3   1  UNL1       -0.2899
     29 C          67.2193   94.6430    9.9552 C.3     1  UNL1        0.1136
     30 C          68.3407   92.3908    9.3072 C.3     1  UNL1        0.1136
@<TRIPOS>BOND
     1    18    19    1
     2    19     1    1
     3     1     2   ar
     4     2     3   ar
     5     3     4   ar
     6     4     5   ar
     7     5    10    1
     8    10    11    2
     9    10    12   am
    10    12    14    1
    11    14    15    1
    12    15    16    1
    13     5     6   ar
    14     6     7   ar
    15     7    20    1
    16    20    21    1
    17    21    22   ar
    18    22    23   ar
    19    23    24   ar
    20    24    25   ar
    21    25    28    1
    22    28    29    1
    23    28    30    1
    24    25    26   ar
    25    26    27    1
    26     7     8   ar
    27     8     9   ar
    28     9     1   ar
    29     8     4   ar
    30    26    21   ar
    31    12    13    1
    32    16    17    1
@<TRIPOS>MOLECULE
*****
 30 32 0 0 0
SMALL
GASTEIGER

@<TRIPOS>ATOM
      1 C          62.6023   85.4009   11.3068 C.ar    1  UNL1        0.1593
      2 C          61.8669   85.0242   10.0549 C.ar    1  UNL1        0.1357
      3 N          61.1209   86.0696    9.2800 N.ar    1  UNL1       -0.2390
      4 C          61.1103   87.4917    9.7568 C.ar    1  UNL1        0.1030
      5 C          60.4676   88.7302    9.2063 C.ar    1  UNL1        0.0895
      6 C          60.8058   89.8724   10.1180 C.ar    1  UNL1        0.0823
      7 N          61.6575   89.3398   11.2319 N.ar    1  UNL1       -0.3189
      8 C          61.8457   87.8684   11.0087 C.ar    1  UNL1        0.0814
      9 C          62.5917   86.8230   11.7837 C.ar    1  UNL1        0.0572
     10 C          59.6332   88.8122    7.9625 C.2     1  UNL1        0.2489
     11 O          58.6871   87.6999    7.6194 O.2     1  UNL1       -0.2700
     12 N          59.7449   90.0064    7.0618 N.am    1  UNL1       -0.2984
     13 H          60.3658   90.7364    7.2870 H       1  UNL1        0.1498
     14 C          58.9105   90.0883    5.8180 C.3     1  UNL1        0.1215
     15 C          58.7831   91.3907    5.0848 C.3     1  UNL1        0.1583
     16 O          57.4902   92.1503    5.1243 O.3     1  UNL1       -0.3802
     17 H          56.8015   91.6402    4.6700 H       1  UNL1        0.2105
     18 C          63.0760   84.1699   13.5451 C.3     1  UNL1        0.2525
     19 O          63.3483   84.3555   12.0818 O.3     1  UNL1       -0.4698
     20 C          62.2219   90.1383   12.3694 C.3     1  UNL1        0.1517
     21 C          63.4551   90.9673   12.1645 C.ar    1  UNL1        0.0823
     22 N          63.7180   91.6042   10.8322 N.ar    1  UNL1       -0.2266
     23 C          64.9511   92.4332   10.6273 C.ar    1  UNL1        0.1998
     24 N          65.9216   92.6253   11.7548 N.ar    1  UNL1       -0.2093
     25 C          65.6587   91.9883   13.0872 C.ar    1  UNL1        0.1307
     26 C          64.4256   91.1594   13.2921 C.ar    1  UNL1        0.0253
     27 C          64.1628   90.5225   14.6245 C.3     1  UNL1        0.0353
     28 N          66.6292   92.1805   14.2148 N.pl3   1  UNL1       -0.2899
     29 C          66.1662   92.7818   15.5086 C.3     1  UNL1        0.1136
     30 C          68.0627   91.7713   14.0485 C.3     1  UNL1        0.1136
@<TRIPOS>BOND
     1    18    19    1
     2    19     1    1
     3     1     2   ar
     4     2     3   ar
     5     3     4   ar
     6     4     5   ar
     7     5    10    1
     8    10    11    2
     9    10    12   am
    10    12    14    1
    11    14    15    1
    12    15    16    1
    13     5     6   ar
    14     6     7   ar
    15     7    20    1
    16    20    21    1
    17    21    22   ar
    18    22    23   ar
    19    23    24   ar
    20    24    25   ar
    21    25    28    1
    22    28    29    1
    23    28    30    1
    24    25    26   ar
    25    26    27    1
    26     7     8   ar
    27     8     9   ar
    28     9     1   ar
    29     8     4   ar
    30    26    21   ar
    31    12    13    1
    32    16    17    1
@<TRIPOS>MOLECULE
*****
 30 32 0 0 0
SMALL
GASTEIGER

@<TRIPOS>ATOM
      1 C          62.8468   89.7700   12.3783 C.ar    1  UNL1        0.1593
      2 C          61.8576   90.5604   11.5742 C.ar    1  UNL1        0.1357
      3 N          61.0954   89.9000   10.4637 N.ar    1  UNL1       -0.2390
      4 C          61.3225   88.4493   10.1575 C.ar    1  UNL1        0.1030
      5 C          60.7230   87.5344    9.1311 C.ar    1  UNL1        0.0895
      6 C          61.3417   86.1785    9.3009 C.ar    1  UNL1        0.0823
      7 N          62.3236   86.2555   10.4323 N.ar    1  UNL1       -0.3189
      8 C          62.3117   87.6590   10.9616 C.ar    1  UNL1        0.0814
      9 C          63.0738   88.3193   12.0721 C.ar    1  UNL1        0.0572
     10 C          59.6868   87.9095    8.1135 C.2     1  UNL1        0.2489
     11 O          58.5885   86.9468    7.7714 O.2     1  UNL1       -0.2700
     12 N          59.7487   89.2473    7.4380 N.am    1  UNL1       -0.2984
     13 H          60.4695   89.8792    7.6625 H       1  UNL1        0.1498
     14 C          58.7125   89.6224    6.4204 C.3     1  UNL1        0.1215
     15 C          58.8709   90.8789    5.6166 C.3     1  UNL1        0.1583
     16 O          57.6763   91.7374    5.3236 O.3     1  UNL1       -0.3802
     17 H          57.0633   91.2531    4.7485 H       1  UNL1        0.2105
     18 C          64.2912   89.5944   14.5307 C.3     1  UNL1        0.2525
     19 O          63.6090   90.4304   13.4888 O.3     1  UNL1       -0.4698
     20 C          63.1689   85.1271   10.9444 C.3     1  UNL1        0.1517
     21 C          62.9023   84.5462   12.3014 C.ar    1  UNL1        0.0823
     22 N          62.9550   85.4240   13.5165 N.ar    1  UNL1       -0.2266
     23 C          62.6883   84.8431   14.8735 C.ar    1  UNL1        0.1998
     24 N          62.3690   83.3844   15.0154 N.ar    1  UNL1       -0.2093
     25 C          62.3164   82.5066   13.8001 C.ar    1  UNL1        0.1307
     26 C          62.5830   83.0874   12.4431 C.ar    1  UNL1        0.0253
     27 C          62.5303   82.2096   11.2280 C.3     1  UNL1        0.0353
     28 N          61.9971   81.0478   13.9420 N.pl3   1  UNL1       -0.2899
     29 C          60.5772   80.6067   14.1406 C.3     1  UNL1        0.1136
     30 C          63.0976   80.0302   13.8852 C.3     1  UNL1        0.1136
@<TRIPOS>BOND
     1    18    19    1
     2    19     1    1
     3     1     2   ar
     4     2     3   ar
     5     3     4   ar
     6     4     5   ar
     7     5    10    1
     8    10    11    2
     9    10    12   am
    10    12    14    1
    11    14    15    1
    12    15    16    1
    13     5     6   ar
    14     6     7   ar
    15     7    20    1
    16    20    21    1
    17    21    22   ar
    18    22    23   ar
    19    23    24   ar
    20    24    25   ar
    21    25    28    1
    22    28    29    1
    23    28    30    1
    24    25    26   ar
    25    26    27    1
    26     7     8   ar
    27     8     9   ar
    28     9     1   ar
    29     8     4   ar
    30    26    21   ar
    31    12    13    1
    32    16    17    1
@<TRIPOS>MOLECULE
*****
 30 32 0 0 0
SMALL
GASTEIGER

@<TRIPOS>ATOM
      1 C          60.6552   89.0899    9.6435 C.ar    1  UNL1        0.1593
      2 C          60.8865   90.4899   10.1299 C.ar    1  UNL1        0.1357
      3 N          61.8345   90.7427   11.2645 N.ar    1  UNL1       -0.2390
      4 C          62.5512   89.5956   11.9127 C.ar    1  UNL1        0.1030
      5 C          63.5368   89.5371   13.0420 C.ar    1  UNL1        0.0895
      6 C          63.9146   88.1009   13.2536 C.ar    1  UNL1        0.0823
      7 N          63.1626   87.2718   12.2551 N.ar    1  UNL1       -0.3189
      8 C          62.3199   88.1956   11.4264 C.ar    1  UNL1        0.0814
      9 C          61.3719   87.9428   10.2918 C.ar    1  UNL1        0.0572
     10 C          64.0538   90.7090   13.8226 C.2     1  UNL1        0.2489
     11 O          63.3126   91.1882   15.0353 O.2     1  UNL1       -0.2700
     12 N          65.3121   91.4017   13.3904 N.am    1  UNL1       -0.2984
     13 H          65.7987   91.0872   12.5944 H       1  UNL1        0.1498
     14 C          65.8291   92.5736   14.1710 C.3     1  UNL1        0.1215
     15 C          66.1833   92.4125   15.6196 C.3     1  UNL1        0.1583
     16 O          65.2021   92.8140   16.6807 O.3     1  UNL1       -0.3802
     17 H          65.0696   93.7745   16.6519 H       1  UNL1        0.2105
     18 C          59.3942   87.4306    8.0923 C.3     1  UNL1        0.2525
     19 O          59.7071   88.8371    8.5089 O.3     1  UNL1       -0.4698
     20 C          63.2395   85.7808   12.1107 C.3     1  UNL1        0.1517
     21 C          62.9829   84.8982   13.2961 C.ar    1  UNL1        0.0823
     22 N          63.0615   85.4637   14.6832 N.ar    1  UNL1       -0.2266
     23 C          62.8049   84.5811   15.8686 C.ar    1  UNL1        0.1998
     24 N          62.4697   83.1330   15.6670 N.ar    1  UNL1       -0.2093
     25 C          62.3911   82.5675   14.2798 C.ar    1  UNL1        0.1307
     26 C          62.6477   83.4501   13.0944 C.ar    1  UNL1        0.0253
     27 C          62.5692   82.8846   11.7073 C.3     1  UNL1        0.0353
     28 N          62.0560   81.1194   14.0781 N.pl3   1  UNL1       -0.2899
     29 C          63.1504   80.1233   13.8335 C.3     1  UNL1        0.1136
     30 C          60.6263   80.6675   14.1211 C.3     1  UNL1        0.1136
@<TRIPOS>BOND
     1    18    19    1
     2    19     1    1
     3     1     2   ar
     4     2     3   ar
     5     3     4   ar
     6     4     5   ar
     7     5    10    1
     8    10    11    2
     9    10    12   am
    10    12    14    1
    11    14    15    1
    12    15    16    1
    13     5     6   ar
    14     6     7   ar
    15     7    20    1
    16    20    21    1
    17    21    22   ar
    18    22    23   ar
    19    23    24   ar
    20    24    25   ar
    21    25    28    1
    22    28    29    1
    23    28    30    1
    24    25    26   ar
    25    26    27    1
    26     7     8   ar
    27     8     9   ar
    28     9     1   ar
    29     8     4   ar
    30    26    21   ar
    31    12    13    1
    32    16    17    1
@<TRIPOS>MOLECULE
*****
 30 32 0 0 0
SMALL
GASTEIGER

@<TRIPOS>ATOM
      1 C          64.0721   86.1181   13.7035 C.ar    1  UNL1        0.1593
      2 C          63.4105   85.3338   12.6094 C.ar    1  UNL1        0.1357
      3 N          62.6473   86.0461   11.5323 N.ar    1  UNL1       -0.2390
      4 C          62.5457   87.5425   11.5492 C.ar    1  UNL1        0.1030
      5 C          61.8664   88.5129   10.6290 C.ar    1  UNL1        0.0895
      6 C          62.1082   89.8969   11.1544 C.ar    1  UNL1        0.0823
      7 N          62.9370   89.7819   12.3994 N.ar    1  UNL1       -0.3189
      8 C          63.2073   88.3267   12.6434 C.ar    1  UNL1        0.0814
      9 C          63.9705   87.6145   13.7205 C.ar    1  UNL1        0.0572
     10 C          61.0829   88.1611    9.3993 C.2     1  UNL1        0.2489
     11 O          60.4207   89.2418    8.5971 O.2     1  UNL1       -0.2700
     12 N          60.9614   86.7285    8.9717 N.am    1  UNL1       -0.2984
     13 H          61.3960   86.0191    9.4982 H       1  UNL1        0.1498
     14 C          60.1779   86.3766    7.7420 C.3     1  UNL1        0.1215
     15 C          60.4991   85.1247    6.9806 C.3     1  UNL1        0.1583
     16 O          61.9211   84.8079    6.6237 O.3     1  UNL1       -0.3802
     17 H          62.2518   85.4691    5.9958 H       1  UNL1        0.2105
     18 C          64.4251   84.0265   15.2037 C.3     1  UNL1        0.2525
     19 O          64.8353   85.4059   14.7807 O.3     1  UNL1       -0.4698
     20 C          63.4120   90.9218   13.2508 C.3     1  UNL1        0.1517
     21 C          64.8364   91.3831   13.1599 C.ar    1  UNL1        0.0823
     22 N          65.7589   91.2038   14.3289 N.ar    1  UNL1       -0.2266
     23 C          67.1833   91.6651   14.2380 C.ar    1  UNL1        0.1998
     24 N          67.6852   92.3057   12.9779 N.ar    1  UNL1       -0.2093
     25 C          66.7626   92.4849   11.8088 C.ar    1  UNL1        0.1307
     26 C          65.3382   92.0237   11.8998 C.ar    1  UNL1        0.0253
     27 C          64.4157   92.2030   10.7307 C.3     1  UNL1        0.0353
     28 N          67.2645   93.1255   10.5487 N.pl3   1  UNL1       -0.2899
     29 C          67.8876   92.2828    9.4756 C.3     1  UNL1        0.1136
     30 C          67.1434   94.6089   10.3618 C.3     1  UNL1        0.1136
@<TRIPOS>BOND
     1    18    19    1
     2    19     1    1
     3     1     2   ar
     4     2     3   ar
     5     3     4   ar
     6     4     5   ar
     7     5    10    1
     8    10    11    2
     9    10    12   am
    10    12    14    1
    11    14    15    1
    12    15    16    1
    13     5     6   ar
    14     6     7   ar
    15     7    20    1
    16    20    21    1
    17    21    22   ar
    18    22    23   ar
    19    23    24   ar
    20    24    25   ar
    21    25    28    1
    22    28    29    1
    23    28    30    1
    24    25    26   ar
    25    26    27    1
    26     7     8   ar
    27     8     9   ar
    28     9     1   ar
    29     8     4   ar
    30    26    21   ar
    31    12    13    1
    32    16    17    1
@<TRIPOS>MOLECULE
*****
 30 32 0 0 0
SMALL
GASTEIGER

@<TRIPOS>ATOM
      1 C          61.6088   86.8723   10.3212 C.ar    1  UNL1        0.1593
      2 C          61.6586   88.3583   10.1236 C.ar    1  UNL1        0.1357
      3 N          62.4084   89.2195   11.0964 N.ar    1  UNL1       -0.2390
      4 C          63.1082   88.5946   12.2667 C.ar    1  UNL1        0.1030
      5 C          63.9196   89.1835   13.3824 C.ar    1  UNL1        0.0895
      6 C          64.3712   88.0614   14.2695 C.ar    1  UNL1        0.0823
      7 N          63.8389   86.7789   13.7021 N.ar    1  UNL1       -0.3189
      8 C          63.0584   87.1085   12.4642 C.ar    1  UNL1        0.0814
      9 C          62.3086   86.2474   11.4915 C.ar    1  UNL1        0.0572
     10 C          64.2256   90.6390   13.5769 C.2     1  UNL1        0.2489
     11 O          63.5753   91.3994   14.6944 O.2     1  UNL1       -0.2700
     12 N          65.1821   91.3342   12.6538 N.am    1  UNL1       -0.2984
     13 H          65.6089   90.8351   11.9204 H       1  UNL1        0.1498
     14 C          65.4881   92.7897   12.8483 C.3     1  UNL1        0.1215
     15 C          66.3850   93.2243   13.9694 C.3     1  UNL1        0.1583
     16 O          65.8712   93.2381   15.3786 O.3     1  UNL1       -0.3802
     17 H          65.1726   93.9059   15.4615 H       1  UNL1        0.2105
     18 C          60.0046   86.6438    8.2903 C.3     1  UNL1        0.2525
     19 O          60.8590   86.0111    9.3484 O.3     1  UNL1       -0.4698
     20 C          64.0501   85.4077   14.2723 C.3     1  UNL1        0.1517
     21 C          63.8767   84.1986   13.4017 C.ar    1  UNL1        0.0823
     22 N          64.5522   84.1344   12.0640 N.ar    1  UNL1       -0.2266
     23 C          64.3787   82.9252   11.1934 C.ar    1  UNL1        0.1998
     24 N          63.5297   81.7803   11.6605 N.ar    1  UNL1       -0.2093
     25 C          62.8541   81.8445   12.9983 C.ar    1  UNL1        0.1307
     26 C          63.0276   83.0536   13.8689 C.ar    1  UNL1        0.0253
     27 C          62.3521   83.1178   15.2066 C.3     1  UNL1        0.0353
     28 N          62.0051   80.6995   13.4655 N.pl3   1  UNL1       -0.2899
     29 C          62.4985   79.2908   13.3175 C.3     1  UNL1        0.1136
     30 C          60.6628   80.9633   14.0806 C.3     1  UNL1        0.1136
@<TRIPOS>BOND
     1    18    19    1
     2    19     1    1
     3     1     2   ar
     4     2     3   ar
     5     3     4   ar
     6     4     5   ar
     7     5    10    1
     8    10    11    2
     9    10    12   am
    10    12    14    1
    11    14    15    1
    12    15    16    1
    13     5     6   ar
    14     6     7   ar
    15     7    20    1
    16    20    21    1
    17    21    22   ar
    18    22    23   ar
    19    23    24   ar
    20    24    25   ar
    21    25    28    1
    22    28    29    1
    23    28    30    1
    24    25    26   ar
    25    26    27    1
    26     7     8   ar
    27     8     9   ar
    28     9     1   ar
    29     8     4   ar
    30    26    21   ar
    31    12    13    1
    32    16    17    1
@<TRIPOS>MOLECULE
*****
 30 32 0 0 0
SMALL
GASTEIGER

@<TRIPOS>ATOM
      1 C          63.9097   86.3402   13.7406 C.ar    1  UNL1        0.1593
      2 C          63.3214   85.4216   12.7111 C.ar    1  UNL1        0.1357
      3 N          62.5877   85.9883   11.5319 N.ar    1  UNL1       -0.2390
      4 C          62.4424   87.4737   11.3822 C.ar    1  UNL1        0.1030
      5 C          61.7780   88.3167   10.3343 C.ar    1  UNL1        0.0895
      6 C          61.9557   89.7564   10.7162 C.ar    1  UNL1        0.0823
      7 N          62.7300   89.8032   12.0001 N.ar    1  UNL1       -0.3189
      8 C          63.0308   88.3924   12.4117 C.ar    1  UNL1        0.0814
      9 C          63.7644   87.8256   13.5909 C.ar    1  UNL1        0.0572
     10 C          61.0617   87.8091    9.1181 C.2     1  UNL1        0.2489
     11 O          60.1955   88.7351    8.3168 O.2     1  UNL1       -0.2700
     12 N          61.2115   86.3754    8.7032 N.am    1  UNL1       -0.2984
     13 H          61.7800   85.7676    9.2292 H       1  UNL1        0.1498
     14 C          60.4951   85.8678    7.4870 C.3     1  UNL1        0.1215
     15 C          61.1569   84.8625    6.5918 C.3     1  UNL1        0.1583
     16 O          62.6241   84.5844    6.7321 O.3     1  UNL1       -0.3802
     17 H          63.1282   85.3762    6.4875 H       1  UNL1        0.2105
     18 C          64.3574   84.3746   15.3794 C.3     1  UNL1        0.2525
     19 O          64.6434   85.7735   14.9198 O.3     1  UNL1       -0.4698
     20 C          63.1328   91.0430   12.7421 C.3     1  UNL1        0.1517
     21 C          64.4970   91.6310   12.5351 C.ar    1  UNL1        0.0823
     22 N          64.9442   92.0219   11.1578 N.ar    1  UNL1       -0.2266
     23 C          66.3085   92.6100   10.9507 C.ar    1  UNL1        0.1998
     24 N          67.2257   92.8072   12.1212 N.ar    1  UNL1       -0.2093
     25 C          66.7785   92.4162   13.4986 C.ar    1  UNL1        0.1307
     26 C          65.4142   91.8282   13.7056 C.ar    1  UNL1        0.0253
     27 C          64.9671   91.4373   15.0830 C.3     1  UNL1        0.0353
     28 N          67.6957   92.6134   14.6690 N.pl3   1  UNL1       -0.2899
     29 C          67.8170   93.9653   15.3074 C.3     1  UNL1        0.1136
     30 C          68.4917   91.4587   15.2010 C.3     1  UNL1        0.1136
@<TRIPOS>BOND
     1    18    19    1
     2    19     1    1
     3     1     2   ar
     4     2     3   ar
     5     3     4   ar
     6     4     5   ar
     7     5    10    1
     8    10    11    2
     9    10    12   am
    10    12    14    1
    11    14    15    1
    12    15    16    1
    13     5     6   ar
    14     6     7   ar
    15     7    20    1
    16    20    21    1
    17    21    22   ar
    18    22    23   ar
    19    23    24   ar
    20    24    25   ar
    21    25    28    1
    22    28    29    1
    23    28    30    1
    24    25    26   ar
    25    26    27    1
    26     7     8   ar
    27     8     9   ar
    28     9     1   ar
    29     8     4   ar
    30    26    21   ar
    31    12    13    1
    32    16    17    1
