@<TRIPOS>MOLECULE
*****
 25 28 0 0 0
SMALL
GASTEIGER

@<TRIPOS>ATOM
      1 C          61.6050   87.5322   11.0967 C.3     1  UNL1        0.1473
      2 O          60.1728   87.4673   11.5377 O.3     1  UNL1       -0.3787
      3 H          59.7912   86.6157   11.2729 H       1  UNL1        0.2108
      4 C          62.2177   86.3748   10.3650 C.ar    1  UNL1        0.0087
      5 C          62.2400   86.3627    8.8653 C.ar    1  UNL1        0.0188
      6 C          62.8526   85.2054    8.1337 C.ar    1  UNL1        0.0986
      7 N          63.4430   84.0602    8.9018 N.ar    1  UNL1       -0.2439
      8 C          63.4207   84.0724   10.4016 C.ar    1  UNL1        0.0813
      9 C          64.0110   82.9272   11.1698 C.ar    1  UNL1        0.0222
     10 C          63.9888   82.9393   12.6695 C.ar    1  UNL1        0.0384
     11 C          63.3761   84.0967   13.4012 C.ar    1  UNL1        0.1388
     12 C          62.7857   85.2419   12.6330 C.ar    1  UNL1        0.0382
     13 C          62.8080   85.2297   11.1332 C.ar    1  UNL1        0.0190
     14 O          63.3538   84.1088   14.9009 O.3     1  UNL1       -0.4714
     15 C          63.8862   85.2947   15.6494 C.3     1  UNL1        0.2525
     16 C          64.0639   91.1988   11.9687 C.3     1  UNL1        0.0381
     17 C          63.9342   90.1194   13.0023 C.3     1  UNL1        0.0765
     18 N          63.1146   88.8973   12.7117 N.3     1  UNL1       -0.2712
     19 C          62.4247   88.7544   11.3874 C.3     1  UNL1        0.0722
     20 C          62.5544   89.8337   10.3538 C.3     1  UNL1        0.0177
     21 C          63.3740   91.0558   10.6445 C.3     1  UNL1        0.0082
     22 C          62.8763   89.9003   10.9718 C.3     1  UNL1        0.0192
     23 C          62.8071   89.3247   11.5230 C.3     1  UNL1        0.0888
     24 C          65.6410   93.0961   11.1547 C.2     1  UNL1       -0.0049
     25 C          64.8835   92.4209   12.2593 C.2     1  UNL1       -0.0251
@<TRIPOS>BOND
     1    24    25    2
     2    16    25    1
     3    16    17    1
     4    17    18    1
     5    18    19    1
     6    19    20    1
     7    21    20    1
     8    21    22    1
     9    23    22    1
    10    23     1    1
    11     1     2    1
    12     1     4    1
    13     4     5   ar
    14     5     6   ar
    15     6     7   ar
    16     7     8   ar
    17     8     9   ar
    18     9    10   ar
    19    10    11   ar
    20    11    14    1
    21    14    15    1
    22    11    12   ar
    23    12    13   ar
    24    21    16    1
    25    13     4   ar
    26    23    18    1
    27    13     8   ar
    28     2     3    1
@<TRIPOS>MOLECULE
*****
 25 28 0 0 0
SMALL
GASTEIGER

@<TRIPOS>ATOM
      1 C          62.0339   89.9371   11.5005 C.3     1  UNL1        0.1473
      2 O          60.6687   90.4843   11.7949 O.3     1  UNL1       -0.3787
      3 H          60.7406   91.4222   12.0320 H       1  UNL1        0.2108
      4 C          63.2366   90.8280   11.6000 C.ar    1  UNL1        0.0087
      5 C          63.8078   91.4577   10.3643 C.ar    1  UNL1        0.0188
      6 C          65.0105   92.3485   10.4638 C.ar    1  UNL1        0.0986
      7 N          65.6419   92.6097   11.7992 N.ar    1  UNL1       -0.2439
      8 C          65.0706   91.9801   13.0349 C.ar    1  UNL1        0.0813
      9 C          65.7020   92.2413   14.3703 C.ar    1  UNL1        0.0222
     10 C          65.1308   91.6116   15.6060 C.ar    1  UNL1        0.0384
     11 C          63.9281   90.7207   15.5065 C.ar    1  UNL1        0.1388
     12 C          63.2967   90.4595   14.1712 C.ar    1  UNL1        0.0382
     13 C          63.8680   91.0892   12.9354 C.ar    1  UNL1        0.0190
     14 O          63.3569   90.0910   16.7423 O.3     1  UNL1       -0.4714
     15 C          63.0831   88.6166   16.7748 C.3     1  UNL1        0.2525
     16 C          62.5217   85.6225   10.3188 C.3     1  UNL1        0.0381
     17 C          62.7841   86.0469   11.7334 C.3     1  UNL1        0.0765
     18 N          62.6215   87.4851   12.1273 N.3     1  UNL1       -0.2712
     19 C          62.1965   88.4989   11.1066 C.3     1  UNL1        0.0722
     20 C          61.9341   88.0744    9.6921 C.3     1  UNL1        0.0177
     21 C          62.0967   86.6362    9.2982 C.3     1  UNL1        0.0082
     22 C          62.1324   87.6013   10.1684 C.3     1  UNL1        0.0192
     23 C          62.2724   87.8277   10.9228 C.3     1  UNL1        0.0888
     24 C          63.9721   83.4698   10.2091 C.2     1  UNL1       -0.0049
     25 C          62.6843   84.1843    9.9249 C.2     1  UNL1       -0.0251
@<TRIPOS>BOND
     1    24    25    2
     2    16    25    1
     3    16    17    1
     4    17    18    1
     5    18    19    1
     6    19    20    1
     7    21    20    1
     8    21    22    1
     9    23    22    1
    10    23     1    1
    11     1     2    1
    12     1     4    1
    13     4     5   ar
    14     5     6   ar
    15     6     7   ar
    16     7     8   ar
    17     8     9   ar
    18     9    10   ar
    19    10    11   ar
    20    11    14    1
    21    14    15    1
    22    11    12   ar
    23    12    13   ar
    24    21    16    1
    25    13     4   ar
    26    23    18    1
    27    13     8   ar
    28     2     3    1
@<TRIPOS>MOLECULE
*****
 25 28 0 0 0
SMALL
GASTEIGER

@<TRIPOS>ATOM
      1 C          61.5874   89.6684   11.6249 C.3     1  UNL1        0.1473
      2 O          60.5695   89.8212   12.7160 O.3     1  UNL1       -0.3787
      3 H          60.8452   90.5297   13.3185 H       1  UNL1        0.2108
      4 C          62.7997   90.5516   11.6011 C.ar    1  UNL1        0.0087
      5 C          63.2518   91.1701   10.3115 C.ar    1  UNL1        0.0188
      6 C          64.4640   92.0532   10.2877 C.ar    1  UNL1        0.0986
      7 N          65.2241   92.3179   11.5535 N.ar    1  UNL1       -0.2439
      8 C          64.7720   91.6994   12.8430 C.ar    1  UNL1        0.0813
      9 C          65.5321   91.9640   14.1088 C.ar    1  UNL1        0.0222
     10 C          65.0801   91.3455   15.3984 C.ar    1  UNL1        0.0384
     11 C          63.8678   90.4623   15.4222 C.ar    1  UNL1        0.1388
     12 C          63.1077   90.1977   14.1565 C.ar    1  UNL1        0.0382
     13 C          63.5598   90.8162   12.8668 C.ar    1  UNL1        0.0190
     14 O          63.4157   89.8438   16.7118 O.3     1  UNL1       -0.4714
     15 C          63.0872   88.3813   16.7676 C.3     1  UNL1        0.2525
     16 C          61.0046   86.5606    8.4231 C.3     1  UNL1        0.0381
     17 C          60.1274   87.7770    8.4562 C.3     1  UNL1        0.0765
     18 N          60.3217   88.8130    9.5234 N.3     1  UNL1       -0.2712
     19 C          61.3931   88.6325   10.5576 C.3     1  UNL1        0.0722
     20 C          62.2702   87.4161   10.5245 C.3     1  UNL1        0.0177
     21 C          62.0760   86.3802    9.4572 C.3     1  UNL1        0.0082
     22 C          61.7703   87.5003   10.0419 C.3     1  UNL1        0.0192
     23 C          61.3025   88.1491   10.0596 C.3     1  UNL1        0.0888
     24 C          61.9976   84.8205    6.7691 C.2     1  UNL1       -0.0049
     25 C          60.8103   85.5247    7.3558 C.2     1  UNL1       -0.0251
@<TRIPOS>BOND
     1    24    25    2
     2    16    25    1
     3    16    17    1
     4    17    18    1
     5    18    19    1
     6    19    20    1
     7    21    20    1
     8    21    22    1
     9    23    22    1
    10    23     1    1
    11     1     2    1
    12     1     4    1
    13     4     5   ar
    14     5     6   ar
    15     6     7   ar
    16     7     8   ar
    17     8     9   ar
    18     9    10   ar
    19    10    11   ar
    20    11    14    1
    21    14    15    1
    22    11    12   ar
    23    12    13   ar
    24    21    16    1
    25    13     4   ar
    26    23    18    1
    27    13     8   ar
    28     2     3    1
@<TRIPOS>MOLECULE
*****
 25 28 0 0 0
SMALL
GASTEIGER

@<TRIPOS>ATOM
      1 C          61.4126   87.8760   11.2573 C.3     1  UNL1        0.1473
      2 O          59.9530   87.9408   11.5969 O.3     1  UNL1       -0.3787
      3 H          59.6902   88.8666   11.7186 H       1  UNL1        0.2108
      4 C          62.2160   89.1387   11.1565 C.ar    1  UNL1        0.0087
      5 C          62.1450   89.9756    9.9137 C.ar    1  UNL1        0.0188
      6 C          62.9484   91.2383    9.8129 C.ar    1  UNL1        0.0986
      7 N          63.8228   91.6641   10.9549 N.ar    1  UNL1       -0.2439
      8 C          63.8939   90.8272   12.1976 C.ar    1  UNL1        0.0813
      9 C          64.7683   91.2529   13.3396 C.ar    1  UNL1        0.0222
     10 C          64.8394   90.4160   14.5823 C.ar    1  UNL1        0.0384
     11 C          64.0360   89.1533   14.6832 C.ar    1  UNL1        0.1388
     12 C          63.1615   88.7275   13.5413 C.ar    1  UNL1        0.0382
     13 C          63.0905   89.5645   12.2984 C.ar    1  UNL1        0.0190
     14 O          64.1070   88.3164   15.9260 O.3     1  UNL1       -0.4714
     15 C          63.0436   88.4418   16.9765 C.3     1  UNL1        0.2525
     16 C          63.3814   83.8934   10.5412 C.3     1  UNL1        0.0381
     17 C          63.0759   84.3381   11.9408 C.3     1  UNL1        0.0765
     18 N          62.4196   85.6656   12.1795 N.3     1  UNL1       -0.2712
     19 C          62.0689   86.5485   11.0186 C.3     1  UNL1        0.0722
     20 C          62.3744   86.1037    9.6190 C.3     1  UNL1        0.0177
     21 C          63.0307   84.7762    9.3803 C.3     1  UNL1        0.0082
     22 C          62.5381   85.6918   10.1608 C.3     1  UNL1        0.0192
     23 C          62.3751   85.9289   10.9072 C.3     1  UNL1        0.0888
     24 C          63.2659   81.2980   10.5189 C.2     1  UNL1       -0.0049
     25 C          64.0377   82.5659   10.3024 C.2     1  UNL1       -0.0251
@<TRIPOS>BOND
     1    24    25    2
     2    16    25    1
     3    16    17    1
     4    17    18    1
     5    18    19    1
     6    19    20    1
     7    21    20    1
     8    21    22    1
     9    23    22    1
    10    23     1    1
    11     1     2    1
    12     1     4    1
    13     4     5   ar
    14     5     6   ar
    15     6     7   ar
    16     7     8   ar
    17     8     9   ar
    18     9    10   ar
    19    10    11   ar
    20    11    14    1
    21    14    15    1
    22    11    12   ar
    23    12    13   ar
    24    21    16    1
    25    13     4   ar
    26    23    18    1
    27    13     8   ar
    28     2     3    1
@<TRIPOS>MOLECULE
*****
 25 28 0 0 0
SMALL
GASTEIGER

@<TRIPOS>ATOM
      1 C          61.6358   89.4733   11.7515 C.3     1  UNL1        0.1473
      2 O          60.3282   89.9261   12.3305 O.3     1  UNL1       -0.3787
      3 H          59.6830   89.2039   12.2758 H       1  UNL1        0.2108
      4 C          61.7734   88.0823   11.2071 C.ar    1  UNL1        0.0087
      5 C          62.5878   87.0639   11.9484 C.ar    1  UNL1        0.0188
      6 C          62.7253   85.6730   11.4039 C.ar    1  UNL1        0.0986
      7 N          62.0485   85.3005   10.1182 N.ar    1  UNL1       -0.2439
      8 C          61.2341   86.3189    9.3769 C.ar    1  UNL1        0.0813
      9 C          60.5572   85.9464    8.0911 C.ar    1  UNL1        0.0222
     10 C          59.7428   86.9648    7.3498 C.ar    1  UNL1        0.0384
     11 C          59.6052   88.3558    7.8943 C.ar    1  UNL1        0.1388
     12 C          60.2821   88.7283    9.1800 C.ar    1  UNL1        0.0382
     13 C          61.0965   87.7098    9.9213 C.ar    1  UNL1        0.0190
     14 O          58.7908   89.3742    7.1530 O.3     1  UNL1       -0.4714
     15 C          59.3542   90.0418    5.9336 C.3     1  UNL1        0.2525
     16 C          65.1457   92.2874   11.6478 C.3     1  UNL1        0.0381
     17 C          64.7634   91.6123   12.9316 C.3     1  UNL1        0.0765
     18 N          63.5934   90.6742   12.9662 N.3     1  UNL1       -0.2712
     19 C          62.8057   90.4113   11.7169 C.3     1  UNL1        0.0722
     20 C          63.1881   91.0864   10.4332 C.3     1  UNL1        0.0177
     21 C          64.3581   92.0244   10.3986 C.3     1  UNL1        0.0082
     22 C          63.5557   91.2091   11.0161 C.3     1  UNL1        0.0192
     23 C          63.3517   90.8491   11.7008 C.3     1  UNL1        0.0888
     24 C          66.1226   94.6498   11.1845 C.2     1  UNL1       -0.0049
     25 C          66.3157   93.2255   11.6132 C.2     1  UNL1       -0.0251
@<TRIPOS>BOND
     1    24    25    2
     2    16    25    1
     3    16    17    1
     4    17    18    1
     5    18    19    1
     6    19    20    1
     7    21    20    1
     8    21    22    1
     9    23    22    1
    10    23     1    1
    11     1     2    1
    12     1     4    1
    13     4     5   ar
    14     5     6   ar
    15     6     7   ar
    16     7     8   ar
    17     8     9   ar
    18     9    10   ar
    19    10    11   ar
    20    11    14    1
    21    14    15    1
    22    11    12   ar
    23    12    13   ar
    24    21    16    1
    25    13     4   ar
    26    23    18    1
    27    13     8   ar
    28     2     3    1
@<TRIPOS>MOLECULE
*****
 25 28 0 0 0
SMALL
GASTEIGER

@<TRIPOS>ATOM
      1 C          63.8507   90.6111   13.6586 C.3     1  UNL1        0.1473
      2 O          63.0033   91.3387   14.6598 O.3     1  UNL1       -0.3787
      3 H          62.4888   90.6976   15.1748 H       1  UNL1        0.2108
      4 C          63.8031   89.1137   13.5829 C.ar    1  UNL1        0.0087
      5 C          64.4949   88.2876   14.6264 C.ar    1  UNL1        0.0188
      6 C          64.4472   86.7903   14.5506 C.ar    1  UNL1        0.0986
      7 N          63.7077   86.1191   13.4314 N.ar    1  UNL1       -0.2439
      8 C          63.0159   86.9452   12.3879 C.ar    1  UNL1        0.0813
      9 C          62.2765   86.2740   11.2687 C.ar    1  UNL1        0.0222
     10 C          61.5847   87.1002   10.2252 C.ar    1  UNL1        0.0384
     11 C          61.6323   88.5975   10.3009 C.ar    1  UNL1        0.1388
     12 C          62.3718   89.2687   11.4202 C.ar    1  UNL1        0.0382
     13 C          63.0636   88.4425   12.4637 C.ar    1  UNL1        0.0190
     14 O          60.9405   89.4237    9.2574 O.3     1  UNL1       -0.4714
     15 C          59.9140   88.7952    8.3623 C.3     1  UNL1        0.2525
     16 C          66.5359   92.9200   10.8822 C.3     1  UNL1        0.0381
     17 C          67.0113   92.5608   12.2588 C.3     1  UNL1        0.0765
     18 N          66.1162   91.7911   13.1843 N.3     1  UNL1       -0.2712
     19 C          64.7458   91.3807   12.7332 C.3     1  UNL1        0.0722
     20 C          64.2704   91.7400   11.3566 C.3     1  UNL1        0.0177
     21 C          65.1655   92.5096   10.4311 C.3     1  UNL1        0.0082
     22 C          64.9099   91.9315   11.5671 C.3     1  UNL1        0.0192
     23 C          65.1635   91.7399   12.3013 C.3     1  UNL1        0.0888
     24 C          68.3648   92.9598    9.0374 C.2     1  UNL1       -0.0049
     25 C          67.4309   93.6896    9.9567 C.2     1  UNL1       -0.0251
@<TRIPOS>BOND
     1    24    25    2
     2    16    25    1
     3    16    17    1
     4    17    18    1
     5    18    19    1
     6    19    20    1
     7    21    20    1
     8    21    22    1
     9    23    22    1
    10    23     1    1
    11     1     2    1
    12     1     4    1
    13     4     5   ar
    14     5     6   ar
    15     6     7   ar
    16     7     8   ar
    17     8     9   ar
    18     9    10   ar
    19    10    11   ar
    20    11    14    1
    21    14    15    1
    22    11    12   ar
    23    12    13   ar
    24    21    16    1
    25    13     4   ar
    26    23    18    1
    27    13     8   ar
    28     2     3    1
@<TRIPOS>MOLECULE
*****
 25 28 0 0 0
SMALL
GASTEIGER

@<TRIPOS>ATOM
      1 C          61.4076   89.5277   11.6558 C.3     1  UNL1        0.1473
      2 O          60.2719   89.7887   12.6003 O.3     1  UNL1       -0.3787
      3 H          59.5632   89.1463   12.4391 H       1  UNL1        0.2108
      4 C          61.3165   88.4048   10.6654 C.ar    1  UNL1        0.0087
      5 C          60.6083   88.6121    9.3595 C.ar    1  UNL1        0.0188
      6 C          60.5172   87.4893    8.3692 C.ar    1  UNL1        0.0986
      7 N          61.1344   86.1590    8.6847 N.ar    1  UNL1       -0.2439
      8 C          61.8426   85.9517    9.9906 C.ar    1  UNL1        0.0813
      9 C          62.4598   84.6214   10.3062 C.ar    1  UNL1        0.0222
     10 C          63.1680   84.4141   11.6120 C.ar    1  UNL1        0.0384
     11 C          63.2591   85.5370   12.6025 C.ar    1  UNL1        0.1388
     12 C          62.6419   86.8672   12.2869 C.ar    1  UNL1        0.0382
     13 C          61.9337   87.0745   10.9809 C.ar    1  UNL1        0.0190
     14 O          63.9673   85.3296   13.9083 O.3     1  UNL1       -0.4714
     15 C          64.8139   84.1090   14.1169 C.3     1  UNL1        0.2525
     16 C          65.0881   92.1133   11.7935 C.3     1  UNL1        0.0381
     17 C          64.6232   91.4038   13.0307 C.3     1  UNL1        0.0765
     18 N          63.3964   90.5419   12.9848 N.3     1  UNL1       -0.2712
     19 C          62.6344   90.3895   11.7017 C.3     1  UNL1        0.0722
     20 C          63.0993   91.0990   10.4646 C.3     1  UNL1        0.0177
     21 C          64.3261   91.9609   10.5105 C.3     1  UNL1        0.0082
     22 C          63.4548   91.1701   11.0633 C.3     1  UNL1        0.0192
     23 C          63.2069   90.7917   11.7231 C.3     1  UNL1        0.0888
     24 C          66.2050   94.4501   11.5899 C.2     1  UNL1       -0.0049
     25 C          66.3149   92.9751   11.8394 C.2     1  UNL1       -0.0251
@<TRIPOS>BOND
     1    24    25    2
     2    16    25    1
     3    16    17    1
     4    17    18    1
     5    18    19    1
     6    19    20    1
     7    21    20    1
     8    21    22    1
     9    23    22    1
    10    23     1    1
    11     1     2    1
    12     1     4    1
    13     4     5   ar
    14     5     6   ar
    15     6     7   ar
    16     7     8   ar
    17     8     9   ar
    18     9    10   ar
    19    10    11   ar
    20    11    14    1
    21    14    15    1
    22    11    12   ar
    23    12    13   ar
    24    21    16    1
    25    13     4   ar
    26    23    18    1
    27    13     8   ar
    28     2     3    1
@<TRIPOS>MOLECULE
*****
 25 28 0 0 0
SMALL
GASTEIGER

@<TRIPOS>ATOM
      1 C          63.5628   83.7698   11.0537 C.3     1  UNL1        0.1473
      2 O          64.8841   83.3483   10.4824 O.3     1  UNL1       -0.3787
      3 H          65.3014   82.7032   11.0745 H       1  UNL1        0.2108
      4 C          63.0903   83.1932   12.3555 C.ar    1  UNL1        0.0087
      5 C          62.4359   81.8439   12.3846 C.ar    1  UNL1        0.0188
      6 C          61.9635   81.2674   13.6863 C.ar    1  UNL1        0.0986
      7 N          62.1454   82.0403   14.9589 N.ar    1  UNL1       -0.2439
      8 C          62.7998   83.3897   14.9298 C.ar    1  UNL1        0.0813
      9 C          62.9817   84.1627   16.2023 C.ar    1  UNL1        0.0222
     10 C          63.6361   85.5120   16.1732 C.ar    1  UNL1        0.0384
     11 C          64.1086   86.0886   14.8715 C.ar    1  UNL1        0.1388
     12 C          63.9267   85.3156   13.5989 C.ar    1  UNL1        0.0382
     13 C          63.2723   83.9662   13.6281 C.ar    1  UNL1        0.0190
     14 O          64.7630   87.4379   14.8424 O.3     1  UNL1       -0.4714
     15 C          64.1317   88.5613   14.0746 C.3     1  UNL1        0.2525
     16 C          61.0162   86.7638    8.8627 C.3     1  UNL1        0.0381
     17 C          61.9896   85.9101    8.1052 C.3     1  UNL1        0.0765
     18 N          62.8385   84.9121    8.8355 N.3     1  UNL1       -0.2712
     19 C          62.7140   84.7678   10.3234 C.3     1  UNL1        0.0722
     20 C          61.7406   85.6214   11.0809 C.3     1  UNL1        0.0177
     21 C          60.8917   86.6194   10.3505 C.3     1  UNL1        0.0082
     22 C          61.7987   85.6888   10.3866 C.3     1  UNL1        0.0192
     23 C          62.3178   85.2335    9.9826 C.3     1  UNL1        0.0888
     24 C          60.1224   89.1884    8.5937 C.2     1  UNL1       -0.0049
     25 C          60.1674   87.7618    8.1324 C.2     1  UNL1       -0.0251
@<TRIPOS>BOND
     1    24    25    2
     2    16    25    1
     3    16    17    1
     4    17    18    1
     5    18    19    1
     6    19    20    1
     7    21    20    1
     8    21    22    1
     9    23    22    1
    10    23     1    1
    11     1     2    1
    12     1     4    1
    13     4     5   ar
    14     5     6   ar
    15     6     7   ar
    16     7     8   ar
    17     8     9   ar
    18     9    10   ar
    19    10    11   ar
    20    11    14    1
    21    14    15    1
    22    11    12   ar
    23    12    13   ar
    24    21    16    1
    25    13     4   ar
    26    23    18    1
    27    13     8   ar
    28     2     3    1
@<TRIPOS>MOLECULE
*****
 25 28 0 0 0
SMALL
GASTEIGER

@<TRIPOS>ATOM
      1 C          63.5362   90.2864   13.0042 C.3     1  UNL1        0.1473
      2 O          62.4214   90.9239   12.2291 O.3     1  UNL1       -0.3787
      3 H          61.8167   90.2368   11.9080 H       1  UNL1        0.2108
      4 C          63.5760   88.7964   13.1729 C.ar    1  UNL1        0.0087
      5 C          64.2770   88.1937   14.3541 C.ar    1  UNL1        0.0188
      6 C          64.3167   86.7038   14.5227 C.ar    1  UNL1        0.0986
      7 N          63.6554   85.8165   13.5101 N.ar    1  UNL1       -0.2439
      8 C          62.9544   86.4191   12.3289 C.ar    1  UNL1        0.0813
      9 C          62.2931   85.5318   11.3163 C.ar    1  UNL1        0.0222
     10 C          61.5921   86.1344   10.1351 C.ar    1  UNL1        0.0384
     11 C          61.5523   87.6244    9.9664 C.ar    1  UNL1        0.1388
     12 C          62.2136   88.5117   10.9790 C.ar    1  UNL1        0.0382
     13 C          62.9147   87.9090   12.1603 C.ar    1  UNL1        0.0190
     14 O          60.8513   88.2270    8.7851 O.3     1  UNL1       -0.4714
     15 C          59.7691   87.4607    8.0841 C.3     1  UNL1        0.2525
     16 C          66.7614   92.8435   14.8234 C.3     1  UNL1        0.0381
     17 C          65.6636   92.2946   15.6858 C.3     1  UNL1        0.0765
     18 N          64.5886   91.4422   15.0794 N.3     1  UNL1       -0.2712
     19 C          64.6112   91.1387   13.6106 C.3     1  UNL1        0.0722
     20 C          65.7089   91.6877   12.7482 C.3     1  UNL1        0.0177
     21 C          66.7840   92.5400   13.3546 C.3     1  UNL1        0.0082
     22 C          65.6984   91.8293   13.4336 C.3     1  UNL1        0.0192
     23 C          65.1129   91.5365   13.8936 C.3     1  UNL1        0.0888
     24 C          69.0701   93.0572   15.9956 C.2     1  UNL1       -0.0049
     25 C          67.8364   93.6959   15.4297 C.2     1  UNL1       -0.0251
@<TRIPOS>BOND
     1    24    25    2
     2    16    25    1
     3    16    17    1
     4    17    18    1
     5    18    19    1
     6    19    20    1
     7    21    20    1
     8    21    22    1
     9    23    22    1
    10    23     1    1
    11     1     2    1
    12     1     4    1
    13     4     5   ar
    14     5     6   ar
    15     6     7   ar
    16     7     8   ar
    17     8     9   ar
    18     9    10   ar
    19    10    11   ar
    20    11    14    1
    21    14    15    1
    22    11    12   ar
    23    12    13   ar
    24    21    16    1
    25    13     4   ar
    26    23    18    1
    27    13     8   ar
    28     2     3    1
