@<TRIPOS>MOLECULE
*****
 31 35 0 0 0
SMALL
GASTEIGER

@<TRIPOS>ATOM
      1 O          62.9623   88.9893   13.8825 O.2     1  UNL1       -0.2739
      2 C          62.7295   89.3663   12.4495 C.2     1  UNL1        0.2419
      3 N          63.4855   90.5110   11.8427 N.am    1  UNL1       -0.2581
      4 C          63.3593   91.0013   10.4307 C.3     1  UNL1        0.1029
      5 C          64.2962   92.1596   10.2568 C.3     1  UNL1        0.0495
      6 C          65.0015   92.3852   11.5613 C.ar    1  UNL1       -0.0053
      7 C          66.0353   93.3869   11.9833 C.ar    1  UNL1        0.0149
      8 C          66.5680   93.3696   13.3854 C.ar    1  UNL1        0.0013
      9 C          66.0669   92.3507   14.3655 C.ar    1  UNL1        0.0013
     10 C          65.0332   91.3490   13.9435 C.ar    1  UNL1        0.0146
     11 C          64.5005   91.3663   12.5414 C.ar    1  UNL1        0.0499
     12 C          66.5363   94.4058   11.0031 C.ar    1  UNL1        0.0810
     13 C          66.0969   95.8355   11.1169 C.ar    1  UNL1        0.0191
     14 C          66.5980   96.8545   10.1367 C.ar    1  UNL1        0.0031
     15 C          67.5384   96.4437    9.0427 C.ar    1  UNL1        0.0207
     16 C          67.9777   95.0139    8.9289 C.ar    1  UNL1        0.0988
     17 N          67.4767   93.9951    9.9090 N.ar    1  UNL1       -0.2438
     18 C          61.7407   88.5985   11.6232 C.3     1  UNL1        0.2068
     19 C          62.0910   87.2326   11.1116 C.2     1  UNL1        0.3580
     20 N          62.3980   86.1262   12.0768 N.2     1  UNL1       -0.0039
     21 C          62.7483   84.7603   11.5652 C.2     1  UNL1        0.3159
     22 C          62.7915   84.5008   10.0885 C.3     1  UNL1        0.2333
     23 C          62.4844   85.6073    9.1233 C.2     1  UNL1        0.3644
     24 O          62.5276   85.3478    7.6465 O.2     1  UNL1       -0.2422
     25 N          62.1342   86.9731    9.6349 N.am    1  UNL1        0.0289
     26 N          63.0553   83.6540   12.5304 N.pl3   1  UNL1       -0.1888
     27 C          63.4480   83.9771   13.9416 C.3     1  UNL1        0.2343
     28 C          63.7550   82.8707   14.9068 C.3     1  UNL1        0.1929
     29 O          63.6694   81.4411   14.4608 O.3     1  UNL1       -0.3449
     30 C          63.2768   81.1179   13.0497 C.3     1  UNL1        0.1929
     31 C          62.9697   82.2244   12.0845 C.3     1  UNL1        0.2343
@<TRIPOS>BOND
     1     1     2    2
     2     2    18    1
     3    18    19    1
     4    19    20    1
     5    20    21    2
     6    21    26    1
     7    26    27    1
     8    27    28    1
     9    28    29    1
    10    29    30    1
    11    30    31    1
    12    21    22    1
    13    22    23    1
    14    23    24    2
    15    23    25    1
    16     2     3   am
    17     3     4    1
    18     4     5    1
    19     5     6    1
    20     6     7   ar
    21     7    12    1
    22    12    13   ar
    23    13    14   ar
    24    14    15   ar
    25    15    16   ar
    26    16    17   ar
    27     7     8   ar
    28     8     9   ar
    29     9    10   ar
    30    10    11   ar
    31    25    19    2
    32    11     3    1
    33    31    26    1
    34    11     6   ar
    35    17    12   ar
@<TRIPOS>MOLECULE
*****
 31 35 0 0 0
SMALL
GASTEIGER

@<TRIPOS>ATOM
      1 O          61.7477   90.3516    9.4963 O.2     1  UNL1       -0.2739
      2 C          62.0245   89.5882   10.7575 C.2     1  UNL1        0.2419
      3 N          63.1002   90.0521   11.6943 N.am    1  UNL1       -0.2581
      4 C          63.4886   89.3949   12.9856 C.3     1  UNL1        0.1029
      5 C          64.6048   90.1913   13.5936 C.3     1  UNL1        0.0495
      6 C          64.9063   91.3407   12.6781 C.ar    1  UNL1       -0.0053
      7 C          65.9075   92.4546   12.7617 C.ar    1  UNL1        0.0149
      8 C          65.9788   93.4824   11.6715 C.ar    1  UNL1        0.0013
      9 C          65.0489   93.3963   10.4977 C.ar    1  UNL1        0.0013
     10 C          64.0477   92.2824   10.4141 C.ar    1  UNL1        0.0146
     11 C          63.9764   91.2547   11.5043 C.ar    1  UNL1        0.0499
     12 C          66.8374   92.5406   13.9356 C.ar    1  UNL1        0.0810
     13 C          66.2867   92.7514   15.3148 C.ar    1  UNL1        0.0191
     14 C          67.2166   92.8374   16.4887 C.ar    1  UNL1        0.0031
     15 C          68.6973   92.7126   16.2833 C.ar    1  UNL1        0.0207
     16 C          69.2480   92.5018   14.9040 C.ar    1  UNL1        0.0988
     17 N          68.3180   92.4158   13.7302 N.ar    1  UNL1       -0.2438
     18 C          61.2255   88.3608   11.0819 C.3     1  UNL1        0.2068
     19 C          61.7613   87.0036   10.7345 C.2     1  UNL1        0.3580
     20 N          61.9309   85.9674   11.8056 N.2     1  UNL1       -0.0039
     21 C          62.4667   84.6101   11.4582 C.2     1  UNL1        0.3159
     22 C          62.8330   84.2890   10.0395 C.3     1  UNL1        0.2333
     23 C          62.6634   85.3252    8.9683 C.2     1  UNL1        0.3644
     24 O          63.0297   85.0042    7.5495 O.2     1  UNL1       -0.2422
     25 N          62.1276   86.6825    9.3157 N.am    1  UNL1        0.0289
     26 N          62.6362   83.5740   12.5295 N.pl3   1  UNL1       -0.1888
     27 C          62.7127   82.1215   12.1628 C.3     1  UNL1        0.2343
     28 C          62.8823   81.0854   13.2341 C.3     1  UNL1        0.1929
     29 O          62.9753   81.5017   14.6722 O.3     1  UNL1       -0.3449
     30 C          62.8988   82.9542   15.0390 C.3     1  UNL1        0.1929
     31 C          62.7293   83.9903   13.9675 C.3     1  UNL1        0.2343
@<TRIPOS>BOND
     1     1     2    2
     2     2    18    1
     3    18    19    1
     4    19    20    1
     5    20    21    2
     6    21    26    1
     7    26    27    1
     8    27    28    1
     9    28    29    1
    10    29    30    1
    11    30    31    1
    12    21    22    1
    13    22    23    1
    14    23    24    2
    15    23    25    1
    16     2     3   am
    17     3     4    1
    18     4     5    1
    19     5     6    1
    20     6     7   ar
    21     7    12    1
    22    12    13   ar
    23    13    14   ar
    24    14    15   ar
    25    15    16   ar
    26    16    17   ar
    27     7     8   ar
    28     8     9   ar
    29     9    10   ar
    30    10    11   ar
    31    25    19    2
    32    11     3    1
    33    31    26    1
    34    11     6   ar
    35    17    12   ar
@<TRIPOS>MOLECULE
*****
 31 35 0 0 0
SMALL
GASTEIGER

@<TRIPOS>ATOM
      1 O          64.0379   88.4155   15.3853 O.2     1  UNL1       -0.2739
      2 C          63.5726   89.2924   14.2608 C.2     1  UNL1        0.2419
      3 N          63.1495   88.6806   12.9582 N.am    1  UNL1       -0.2581
      4 C          62.6638   89.4260   11.7506 C.3     1  UNL1        0.1029
      5 C          62.3520   88.4221   10.6806 C.3     1  UNL1        0.0495
      6 C          62.6450   87.0562   11.2270 C.ar    1  UNL1       -0.0053
      7 C          62.5266   85.6876   10.6246 C.ar    1  UNL1        0.0149
      8 C          62.9011   84.4787   11.4299 C.ar    1  UNL1        0.0013
      9 C          63.3940   84.6385   12.8375 C.ar    1  UNL1        0.0013
     10 C          63.5124   86.0071   13.4399 C.ar    1  UNL1        0.0146
     11 C          63.1379   87.2160   12.6347 C.ar    1  UNL1        0.0499
     12 C          62.0337   85.5278    9.2169 C.ar    1  UNL1        0.0810
     13 C          62.9305   84.9347    8.1710 C.ar    1  UNL1        0.0191
     14 C          62.4375   84.7750    6.7633 C.ar    1  UNL1        0.0031
     15 C          61.0478   85.2083    6.4016 C.ar    1  UNL1        0.0207
     16 C          60.1510   85.8014    7.4476 C.ar    1  UNL1        0.0988
     17 N          60.6439   85.9611    8.8552 N.ar    1  UNL1       -0.2438
     18 C          63.5304   90.7812   14.4390 C.3     1  UNL1        0.2068
     19 C          64.7739   91.5959   14.2395 C.2     1  UNL1        0.3580
     20 N          65.2654   91.8870   12.8525 N.2     1  UNL1       -0.0039
     21 C          66.5090   92.7018   12.6530 C.2     1  UNL1        0.3159
     22 C          67.2610   93.2255   13.8405 C.3     1  UNL1        0.2333
     23 C          66.7695   92.9344   15.2274 C.2     1  UNL1        0.3644
     24 O          67.5215   93.4581   16.4150 O.2     1  UNL1       -0.2422
     25 N          65.5260   92.1196   15.4269 N.am    1  UNL1        0.0289
     26 N          67.0004   92.9928   11.2660 N.pl3   1  UNL1       -0.1888
     27 C          67.9849   92.0705   10.6101 C.3     1  UNL1        0.2343
     28 C          68.4763   92.3616    9.2231 C.3     1  UNL1        0.1929
     29 O          67.9833   93.5750    8.4920 O.3     1  UNL1       -0.3449
     30 C          66.9988   94.4974    9.1478 C.3     1  UNL1        0.1929
     31 C          66.5074   94.2062   10.5349 C.3     1  UNL1        0.2343
@<TRIPOS>BOND
     1     1     2    2
     2     2    18    1
     3    18    19    1
     4    19    20    1
     5    20    21    2
     6    21    26    1
     7    26    27    1
     8    27    28    1
     9    28    29    1
    10    29    30    1
    11    30    31    1
    12    21    22    1
    13    22    23    1
    14    23    24    2
    15    23    25    1
    16     2     3   am
    17     3     4    1
    18     4     5    1
    19     5     6    1
    20     6     7   ar
    21     7    12    1
    22    12    13   ar
    23    13    14   ar
    24    14    15   ar
    25    15    16   ar
    26    16    17   ar
    27     7     8   ar
    28     8     9   ar
    29     9    10   ar
    30    10    11   ar
    31    25    19    2
    32    11     3    1
    33    31    26    1
    34    11     6   ar
    35    17    12   ar
@<TRIPOS>MOLECULE
*****
 31 35 0 0 0
SMALL
GASTEIGER

@<TRIPOS>ATOM
      1 O          63.3430   90.4709   12.3503 O.2     1  UNL1       -0.2739
      2 C          63.8885   89.6408   13.4743 C.2     1  UNL1        0.2419
      3 N          63.7461   88.1480   13.4418 N.am    1  UNL1       -0.2581
      4 C          64.2385   87.1924   14.4880 C.3     1  UNL1        0.1029
      5 C          63.8831   85.8024   14.0502 C.3     1  UNL1        0.0495
      6 C          63.1710   85.8990   12.7335 C.ar    1  UNL1       -0.0053
      7 C          62.5888   84.8542   11.8283 C.ar    1  UNL1        0.0149
      8 C          61.9219   85.2590   10.5472 C.ar    1  UNL1        0.0013
      9 C          61.8372   86.7086   10.1712 C.ar    1  UNL1        0.0013
     10 C          62.4195   87.7534   11.0764 C.ar    1  UNL1        0.0146
     11 C          63.0864   87.3486   12.3575 C.ar    1  UNL1        0.0499
     12 C          62.6735   83.4045   12.2044 C.ar    1  UNL1        0.0810
     13 C          63.0486   82.3827   11.1724 C.ar    1  UNL1        0.0191
     14 C          63.1332   80.9330   11.5484 C.ar    1  UNL1        0.0031
     15 C          62.8428   80.5052   12.9565 C.ar    1  UNL1        0.0207
     16 C          62.4677   81.5271   13.9885 C.ar    1  UNL1        0.0988
     17 N          62.3830   82.9767   13.6124 N.ar    1  UNL1       -0.2438
     18 C          64.5763   90.3037   14.6308 C.3     1  UNL1        0.2068
     19 C          65.4737   91.4822   14.3944 C.2     1  UNL1        0.3580
     20 N          65.6017   92.0632   13.0175 N.2     1  UNL1       -0.0039
     21 C          66.4990   93.2417   12.7811 C.2     1  UNL1        0.3159
     22 C          67.2684   93.8393   13.9217 C.3     1  UNL1        0.2333
     23 C          67.1404   93.2583   15.2986 C.2     1  UNL1        0.3644
     24 O          67.9098   93.8558   16.4393 O.2     1  UNL1       -0.2422
     25 N          66.2431   92.0798   15.5350 N.am    1  UNL1        0.0289
     26 N          66.6270   93.8226   11.4041 N.pl3   1  UNL1       -0.1888
     27 C          66.0957   95.1957   11.1169 C.3     1  UNL1        0.2343
     28 C          66.2237   95.7765    9.7399 C.3     1  UNL1        0.1929
     29 O          66.8830   94.9844    8.6500 O.3     1  UNL1       -0.3449
     30 C          67.4143   93.6113    8.9371 C.3     1  UNL1        0.1929
     31 C          67.2862   93.0304   10.3142 C.3     1  UNL1        0.2343
@<TRIPOS>BOND
     1     1     2    2
     2     2    18    1
     3    18    19    1
     4    19    20    1
     5    20    21    2
     6    21    26    1
     7    26    27    1
     8    27    28    1
     9    28    29    1
    10    29    30    1
    11    30    31    1
    12    21    22    1
    13    22    23    1
    14    23    24    2
    15    23    25    1
    16     2     3   am
    17     3     4    1
    18     4     5    1
    19     5     6    1
    20     6     7   ar
    21     7    12    1
    22    12    13   ar
    23    13    14   ar
    24    14    15   ar
    25    15    16   ar
    26    16    17   ar
    27     7     8   ar
    28     8     9   ar
    29     9    10   ar
    30    10    11   ar
    31    25    19    2
    32    11     3    1
    33    31    26    1
    34    11     6   ar
    35    17    12   ar
@<TRIPOS>MOLECULE
*****
 31 35 0 0 0
SMALL
GASTEIGER

@<TRIPOS>ATOM
      1 O          64.8143   87.8847   14.9812 O.2     1  UNL1       -0.2739
      2 C          64.2534   89.1393   14.3802 C.2     1  UNL1        0.2419
      3 N          63.3754   89.0621   13.1664 N.am    1  UNL1       -0.2581
      4 C          62.7455   90.2249   12.4585 C.3     1  UNL1        0.1029
      5 C          61.9539   89.6899   11.3021 C.3     1  UNL1        0.0495
      6 C          62.0947   88.1965   11.2954 C.ar    1  UNL1       -0.0053
      7 C          61.5364   87.1399   10.3888 C.ar    1  UNL1        0.0149
      8 C          61.8565   85.6952   10.6345 C.ar    1  UNL1        0.0013
      9 C          62.7350   85.3072   11.7868 C.ar    1  UNL1        0.0013
     10 C          63.2933   86.3639   12.6933 C.ar    1  UNL1        0.0146
     11 C          62.9732   87.8085   12.4476 C.ar    1  UNL1        0.0499
     12 C          60.6578   87.5279    9.2366 C.ar    1  UNL1        0.0810
     13 C          60.5924   88.9590    8.7920 C.ar    1  UNL1        0.0191
     14 C          59.7139   89.3471    7.6398 C.ar    1  UNL1        0.0031
     15 C          58.9008   88.3040    6.9321 C.ar    1  UNL1        0.0207
     16 C          58.9662   86.8729    7.3767 C.ar    1  UNL1        0.0988
     17 N          59.8447   86.4849    8.5289 N.ar    1  UNL1       -0.2438
     18 C          64.5705   90.4712   14.9929 C.3     1  UNL1        0.2068
     19 C          65.8015   91.2171   14.5705 C.2     1  UNL1        0.3580
     20 N          65.9396   91.6962   13.1559 N.2     1  UNL1       -0.0039
     21 C          67.1706   92.4421   12.7334 C.2     1  UNL1        0.3159
     22 C          68.2634   92.7089   13.7257 C.3     1  UNL1        0.2333
     23 C          68.1252   92.2298   15.1404 C.2     1  UNL1        0.3644
     24 O          69.2180   92.4965   16.1327 O.2     1  UNL1       -0.2422
     25 N          66.8943   91.4839   15.5628 N.am    1  UNL1        0.0289
     26 N          67.3087   92.9212   11.3188 N.pl3   1  UNL1       -0.1888
     27 C          66.6432   94.1953   10.8900 C.3     1  UNL1        0.2343
     28 C          66.7813   94.6744    9.4753 C.3     1  UNL1        0.1929
     29 O          67.5850   93.8794    8.4893 O.3     1  UNL1       -0.3449
     30 C          68.2505   92.6053    8.9180 C.3     1  UNL1        0.1929
     31 C          68.1123   92.1263   10.3328 C.3     1  UNL1        0.2343
@<TRIPOS>BOND
     1     1     2    2
     2     2    18    1
     3    18    19    1
     4    19    20    1
     5    20    21    2
     6    21    26    1
     7    26    27    1
     8    27    28    1
     9    28    29    1
    10    29    30    1
    11    30    31    1
    12    21    22    1
    13    22    23    1
    14    23    24    2
    15    23    25    1
    16     2     3   am
    17     3     4    1
    18     4     5    1
    19     5     6    1
    20     6     7   ar
    21     7    12    1
    22    12    13   ar
    23    13    14   ar
    24    14    15   ar
    25    15    16   ar
    26    16    17   ar
    27     7     8   ar
    28     8     9   ar
    29     9    10   ar
    30    10    11   ar
    31    25    19    2
    32    11     3    1
    33    31    26    1
    34    11     6   ar
    35    17    12   ar
@<TRIPOS>MOLECULE
*****
 31 35 0 0 0
SMALL
GASTEIGER

@<TRIPOS>ATOM
      1 O          63.8816   89.4489   15.9864 O.2     1  UNL1       -0.2739
      2 C          63.6618   89.3743   14.5045 C.2     1  UNL1        0.2419
      3 N          63.5760   88.0397   13.8252 N.am    1  UNL1       -0.2581
      4 C          63.3603   87.8090   12.3588 C.3     1  UNL1        0.1029
      5 C          63.3418   86.3283   12.1203 C.3     1  UNL1        0.0495
      6 C          63.5461   85.6438   13.4394 C.ar    1  UNL1       -0.0053
      7 C          63.6190   84.1939   13.8171 C.ar    1  UNL1        0.0149
      8 C          63.8366   83.8019   15.2485 C.ar    1  UNL1        0.0013
      9 C          63.9813   84.8596   16.3021 C.ar    1  UNL1        0.0013
     10 C          63.9084   86.3094   15.9244 C.ar    1  UNL1        0.0146
     11 C          63.6908   86.7015   14.4930 C.ar    1  UNL1        0.0499
     12 C          63.4742   83.1362   12.7634 C.ar    1  UNL1        0.0810
     13 C          62.7391   81.8657   13.0721 C.ar    1  UNL1        0.0191
     14 C          62.5943   80.8079   12.0184 C.ar    1  UNL1        0.0031
     15 C          63.1848   81.0207   10.6560 C.ar    1  UNL1        0.0207
     16 C          63.9199   82.2913   10.3473 C.ar    1  UNL1        0.0988
     17 N          64.0646   83.3490   11.4010 N.ar    1  UNL1       -0.2438
     18 C          63.5278   90.6344   13.7019 C.3     1  UNL1        0.2068
     19 C          64.6095   91.6725   13.7494 C.2     1  UNL1        0.3580
     20 N          64.9817   92.4254   12.5066 N.2     1  UNL1       -0.0039
     21 C          66.0634   93.4634   12.5542 C.2     1  UNL1        0.3159
     22 C          66.7730   93.7487   13.8446 C.3     1  UNL1        0.2333
     23 C          66.4008   92.9959   15.0874 C.2     1  UNL1        0.3644
     24 O          67.1103   93.2811   16.3779 O.2     1  UNL1       -0.2422
     25 N          65.3191   91.9578   15.0399 N.am    1  UNL1        0.0289
     26 N          66.4356   94.2162   11.3113 N.pl3   1  UNL1       -0.1888
     27 C          67.1673   93.5191   10.2028 C.3     1  UNL1        0.2343
     28 C          67.5394   94.2719    8.9600 C.3     1  UNL1        0.1929
     29 O          67.1799   95.7220    8.8255 O.3     1  UNL1       -0.3449
     30 C          66.4482   96.4192    9.9339 C.3     1  UNL1        0.1929
     31 C          66.0761   95.6663   11.1768 C.3     1  UNL1        0.2343
@<TRIPOS>BOND
     1     1     2    2
     2     2    18    1
     3    18    19    1
     4    19    20    1
     5    20    21    2
     6    21    26    1
     7    26    27    1
     8    27    28    1
     9    28    29    1
    10    29    30    1
    11    30    31    1
    12    21    22    1
    13    22    23    1
    14    23    24    2
    15    23    25    1
    16     2     3   am
    17     3     4    1
    18     4     5    1
    19     5     6    1
    20     6     7   ar
    21     7    12    1
    22    12    13   ar
    23    13    14   ar
    24    14    15   ar
    25    15    16   ar
    26    16    17   ar
    27     7     8   ar
    28     8     9   ar
    29     9    10   ar
    30    10    11   ar
    31    25    19    2
    32    11     3    1
    33    31    26    1
    34    11     6   ar
    35    17    12   ar
