@<TRIPOS>MOLECULE
*****
 30 33 0 0 0
SMALL
GASTEIGER

@<TRIPOS>ATOM
      1 C          63.6118   90.0338   13.3532 C.2     1  UNL1        0.2490
      2 O          63.0098   90.7264   12.1667 O.2     1  UNL1       -0.2699
      3 N          63.6882   88.5360   13.3884 N.am    1  UNL1       -0.2715
      4 C          64.2902   87.8434   14.5750 C.3     1  UNL1        0.1426
      5 C          64.3665   86.3458   14.6102 C.ar    1  UNL1        0.1159
      6 N          64.9014   85.3920   15.6368 N.ar    1  UNL1       -0.1314
      7 N          64.7063   83.9974   15.1200 N.ar    1  UNL1       -0.0576
      8 N          64.0508   84.0894   13.7739 N.ar    1  UNL1       -0.1813
      9 C          63.8408   85.5408   13.4588 C.ar    1  UNL1        0.0837
     10 C          63.2388   86.2334   12.2723 C.3     1  UNL1        0.0671
     11 C          63.1625   87.7310   12.2371 C.3     1  UNL1        0.0820
     12 C          62.5605   88.4236   11.0505 C.3     1  UNL1        0.0219
     13 C          66.2099   91.5104   13.0889 C.3     1  UNL1        0.0327
     14 C          65.4365   91.5771   14.3723 C.ar    1  UNL1        0.0042
     15 C          64.1375   90.8388   14.5045 C.ar    1  UNL1        0.0526
     16 C          63.3642   90.9055   15.7881 C.ar    1  UNL1        0.0249
     17 C          63.8899   91.7105   16.9394 C.ar    1  UNL1        0.0989
     18 N          65.1889   92.4488   16.8072 N.ar    1  UNL1       -0.2402
     19 C          65.9622   92.3821   15.5237 C.ar    1  UNL1        0.1488
     20 C          67.2612   93.1204   15.3915 C.3     1  UNL1        0.4345
     21 F          68.5602   93.8587   15.2593 F       1  UNL1       -0.1644
     22 F          67.9319   92.0955   16.2574 F       1  UNL1       -0.1644
     23 F          66.5906   94.1453   14.5256 F       1  UNL1       -0.1644
     24 C          63.6719   82.9330   12.8969 C.ar    1  UNL1        0.2543
     25 N          62.9925   81.7338   13.4889 N.ar    1  UNL1       -0.2060
     26 C          62.6136   80.5773   12.6120 C.ar    1  UNL1        0.1332
     27 C          62.9140   80.6200   11.1431 C.ar    1  UNL1        0.1784
     28 F          62.5351   79.4636   10.2661 F       1  UNL1       -0.2009
     29 C          63.5934   81.8193   10.5510 C.ar    1  UNL1        0.1332
     30 N          63.9724   82.9757   11.4279 N.ar    1  UNL1       -0.2060
@<TRIPOS>BOND
     1    13    14    1
     2    14    15   ar
     3    15     1    1
     4     1     2    2
     5     1     3   am
     6     3     4    1
     7     4     5    1
     8     5     6   ar
     9     6     7   ar
    10     7     8   ar
    11     8    24    1
    12    24    25   ar
    13    25    26   ar
    14    26    27   ar
    15    27    28    1
    16    27    29   ar
    17    29    30   ar
    18     8     9   ar
    19     9    10    1
    20    10    11    1
    21    11    12    1
    22    15    16   ar
    23    16    17   ar
    24    17    18   ar
    25    18    19   ar
    26    19    20    1
    27    20    21    1
    28    20    22    1
    29    20    23    1
    30    19    14   ar
    31    11     3    1
    32     9     5   ar
    33    30    24   ar
@<TRIPOS>MOLECULE
*****
 30 33 0 0 0
SMALL
GASTEIGER

@<TRIPOS>ATOM
      1 C          61.9513   86.5168   11.1762 C.2     1  UNL1        0.2490
      2 O          61.9878   85.3533   12.1222 O.2     1  UNL1       -0.2699
      3 N          62.6675   87.7884   11.5231 N.am    1  UNL1       -0.2715
      4 C          62.6309   88.9519   10.5770 C.3     1  UNL1        0.1426
      5 C          63.3470   90.2234   10.9240 C.ar    1  UNL1        0.1159
      6 N          63.4876   91.5270   10.1955 N.ar    1  UNL1       -0.1314
      7 N          64.3271   92.4407   11.0382 N.ar    1  UNL1       -0.0576
      8 N          64.7054   91.7018   12.2876 N.ar    1  UNL1       -0.1813
      9 C          64.0997   90.3314   12.2170 C.ar    1  UNL1        0.0837
     10 C          64.1362   89.1679   13.1630 C.3     1  UNL1        0.0671
     11 C          63.4201   87.8964   12.8161 C.3     1  UNL1        0.0820
     12 C          63.4566   86.7329   13.7622 C.3     1  UNL1        0.0219
     13 C          63.0799   84.9015    8.9139 C.3     1  UNL1        0.0327
     14 C          61.7630   85.6011    8.7521 C.ar    1  UNL1        0.0042
     15 C          61.1987   86.4087    9.8831 C.ar    1  UNL1        0.0526
     16 C          59.8817   87.1083    9.7212 C.ar    1  UNL1        0.0249
     17 C          59.1291   87.0003    8.4282 C.ar    1  UNL1        0.0989
     18 N          59.6934   86.1926    7.2971 N.ar    1  UNL1       -0.2402
     19 C          61.0103   85.4931    7.4591 C.ar    1  UNL1        0.1488
     20 C          61.5746   84.6854    6.3280 C.3     1  UNL1        0.4345
     21 F          62.1389   83.8778    5.1970 F       1  UNL1       -0.1644
     22 F          60.2331   84.0498    6.1126 F       1  UNL1       -0.1644
     23 F          62.9161   85.3211    6.5434 F       1  UNL1       -0.1644
     24 C          65.5425   92.2391   13.4104 C.ar    1  UNL1        0.2543
     25 N          65.0868   92.0757   14.8302 N.ar    1  UNL1       -0.2060
     26 C          65.9239   92.6129   15.9531 C.ar    1  UNL1        0.1332
     27 C          67.2165   93.3135   15.6561 C.ar    1  UNL1        0.1784
     28 F          68.0535   93.8508   16.7789 F       1  UNL1       -0.2009
     29 C          67.6721   93.4769   14.2363 C.ar    1  UNL1        0.1332
     30 N          66.8351   92.9397   13.1135 N.ar    1  UNL1       -0.2060
@<TRIPOS>BOND
     1    13    14    1
     2    14    15   ar
     3    15     1    1
     4     1     2    2
     5     1     3   am
     6     3     4    1
     7     4     5    1
     8     5     6   ar
     9     6     7   ar
    10     7     8   ar
    11     8    24    1
    12    24    25   ar
    13    25    26   ar
    14    26    27   ar
    15    27    28    1
    16    27    29   ar
    17    29    30   ar
    18     8     9   ar
    19     9    10    1
    20    10    11    1
    21    11    12    1
    22    15    16   ar
    23    16    17   ar
    24    17    18   ar
    25    18    19   ar
    26    19    20    1
    27    20    21    1
    28    20    22    1
    29    20    23    1
    30    19    14   ar
    31    11     3    1
    32     9     5   ar
    33    30    24   ar
@<TRIPOS>MOLECULE
*****
 30 33 0 0 0
SMALL
GASTEIGER

@<TRIPOS>ATOM
      1 C          63.3147   89.9785   12.1149 C.2     1  UNL1        0.2490
      2 O          62.3537   90.3326   11.0190 O.2     1  UNL1       -0.2699
      3 N          63.4172   88.5605   12.5935 N.am    1  UNL1       -0.2715
      4 C          64.3783   88.2064   13.6895 C.3     1  UNL1        0.1426
      5 C          64.4807   86.7885   14.1680 C.ar    1  UNL1        0.1159
      6 N          65.3300   86.1443   15.2233 N.ar    1  UNL1       -0.1314
      7 N          64.9963   84.6823   15.2581 N.ar    1  UNL1       -0.0576
      8 N          63.9408   84.4230   14.2243 N.ar    1  UNL1       -0.1813
      9 C          63.6222   85.7247   13.5506 C.ar    1  UNL1        0.0837
     10 C          62.6612   86.0788   12.4546 C.3     1  UNL1        0.0671
     11 C          62.5587   87.4967   11.9761 C.3     1  UNL1        0.0820
     12 C          61.5977   87.8507   10.8801 C.3     1  UNL1        0.0219
     13 C          64.7483   91.9510   10.3672 C.3     1  UNL1        0.0327
     14 C          64.8900   92.0285   11.8585 C.ar    1  UNL1        0.0042
     15 C          64.1733   91.0423   12.7323 C.ar    1  UNL1        0.0526
     16 C          64.3150   91.1199   14.2236 C.ar    1  UNL1        0.0249
     17 C          65.1736   92.1838   14.8410 C.ar    1  UNL1        0.0989
     18 N          65.8903   93.1700   13.9671 N.ar    1  UNL1       -0.2402
     19 C          65.7486   93.0924   12.4759 C.ar    1  UNL1        0.1488
     20 C          66.4653   94.0786   11.6021 C.3     1  UNL1        0.4345
     21 F          67.1821   95.0648   10.7282 F       1  UNL1       -0.1644
     22 F          65.6661   95.1948   12.2063 F       1  UNL1       -0.1644
     23 F          67.2646   92.9623   10.9978 F       1  UNL1       -0.1644
     24 C          63.3141   83.0951   13.9181 C.ar    1  UNL1        0.2543
     25 N          62.0786   82.6622   14.6503 N.ar    1  UNL1       -0.2060
     26 C          61.4518   81.3342   14.3441 C.ar    1  UNL1        0.1332
     27 C          62.0605   80.4392   13.3057 C.ar    1  UNL1        0.1784
     28 F          61.4337   79.1113   12.9995 F       1  UNL1       -0.2009
     29 C          63.2960   80.8722   12.5734 C.ar    1  UNL1        0.1332
     30 N          63.9228   82.2000   12.8796 N.ar    1  UNL1       -0.2060
@<TRIPOS>BOND
     1    13    14    1
     2    14    15   ar
     3    15     1    1
     4     1     2    2
     5     1     3   am
     6     3     4    1
     7     4     5    1
     8     5     6   ar
     9     6     7   ar
    10     7     8   ar
    11     8    24    1
    12    24    25   ar
    13    25    26   ar
    14    26    27   ar
    15    27    28    1
    16    27    29   ar
    17    29    30   ar
    18     8     9   ar
    19     9    10    1
    20    10    11    1
    21    11    12    1
    22    15    16   ar
    23    16    17   ar
    24    17    18   ar
    25    18    19   ar
    26    19    20    1
    27    20    21    1
    28    20    22    1
    29    20    23    1
    30    19    14   ar
    31    11     3    1
    32     9     5   ar
    33    30    24   ar
