@<TRIPOS>MOLECULE
*****
 55 60 0 0 0
SMALL
GASTEIGER

@<TRIPOS>ATOM
      1 C          62.5735   85.4021    9.2728 C.3     1  UNL1        0.1269
      2 O          62.6099   84.8972    7.8608 O.3     1  UNL1       -0.3830
      3 H          61.7719   85.1081    7.4203 H       1  UNL1        0.2104
      4 C          63.7568   85.2003   10.1723 C.3     1  UNL1        0.0401
      5 C          63.6254   84.3589   11.4070 C.3     1  UNL1        0.0833
      6 O          61.6662   85.2703   12.8495 O.2     1  UNL1       -0.2751
      7 C          63.1265   84.9712   12.6823 C.2     1  UNL1        0.2226
      8 N          64.0879   85.2843   13.7903 N.am    1  UNL1       -0.2999
      9 H          65.0463   85.0880   13.6805 H       1  UNL1        0.1498
     10 C          63.5890   85.8965   15.0655 C.3     1  UNL1        0.1278
     11 C          63.7089   87.3756   15.2846 C.ar    1  UNL1        0.0320
     12 C          64.3277   88.2424   14.2284 C.ar    1  UNL1        0.0004
     13 C          64.4477   89.7215   14.4474 C.ar    1  UNL1       -0.0001
     14 C          63.9488   90.3337   15.7227 C.ar    1  UNL1        0.0031
     15 C          63.3299   89.4668   16.7788 C.ar    1  UNL1        0.0366
     16 C          63.2100   87.9878   16.5598 C.ar    1  UNL1        0.1362
     17 O          62.5911   87.1209   17.6161 O.3     1  UNL1       -0.4730
     18 C          62.4712   85.6419   17.3970 C.3     1  UNL1        0.2364
     19 C          62.9701   85.0296   16.1217 C.3     1  UNL1        0.1762
     20 O          62.8502   83.5506   15.9027 O.3     1  UNL1       -0.3788
     21 H          62.4309   83.1421   16.6761 H       1  UNL1        0.2106
     22 C          63.9930   82.9052   11.3666 C.3     1  UNL1        0.0371
     23 C          63.4245   81.9593   12.3825 C.ar    1  UNL1       -0.0025
     24 C          61.9450   81.7188   12.4380 C.ar    1  UNL1       -0.0011
     25 C          61.3765   80.7729   13.4540 C.ar    1  UNL1        0.0204
     26 C          62.2876   80.0675   14.4143 C.ar    1  UNL1        0.0989
     27 N          63.7671   80.3079   14.3588 N.ar    1  UNL1       -0.2426
     28 C          64.3356   81.2538   13.3429 C.ar    1  UNL1        0.0946
     29 C          61.3537   86.1089    9.7853 C.3     1  UNL1        0.1021
     30 N          60.6591   87.1243    8.9271 N.3     1  UNL1       -0.2621
     31 C          59.7536   86.6758    7.8184 C.3     1  UNL1        0.0901
     32 C          59.0591   87.6912    6.9602 C.3     1  UNL1        0.0900
     33 N          59.2699   89.1550    7.2107 N.3     1  UNL1       -0.2635
     34 C          60.1753   89.6035    8.3193 C.3     1  UNL1        0.0980
     35 C          60.8699   88.5881    9.1775 C.3     1  UNL1        0.1510
     36 C          61.7753   89.0365   10.2861 C.2     1  UNL1        0.2386
     37 O          61.8127   88.2755   11.5782 O.2     1  UNL1       -0.2736
     38 N          62.6434   90.2460   10.1027 N.am    1  UNL1       -0.2961
     39 H          62.6189   90.7455    9.2547 H       1  UNL1        0.1497
     40 C          63.5488   90.6944   11.2114 C.3     1  UNL1        0.1939
     41 C          64.3798   91.9324   11.0468 C.3     1  UNL1        0.4154
     42 F          65.2106   93.1704   10.8822 F       1  UNL1       -0.1682
     43 F          65.1762   91.5595   12.2619 F       1  UNL1       -0.1682
     44 F          63.5834   92.3054    9.8317 F       1  UNL1       -0.1682
     45 C          58.5754   90.1704    6.3524 C.3     1  UNL1        0.1377
     46 C          59.3464   90.9246    5.3098 C.ar    1  UNL1        0.1390
     47 C          58.8265   92.0587    4.4772 C.ar    1  UNL1        0.0374
     48 C          59.9314   92.5120    3.5696 C.ar    1  UNL1        0.0381
     49 C          59.9977   93.5921    2.5309 C.ar    1  UNL1        0.0032
     50 C          61.2669   93.8181    1.7639 C.ar    1  UNL1        0.0011
     51 C          62.4696   92.9640    2.0356 C.ar    1  UNL1        0.0145
     52 C          62.4033   91.8839    3.0744 C.ar    1  UNL1        0.0921
     53 CL         63.6061   91.0298    3.3461 Cl      1  UNL1       -0.0791
     54 C          61.1342   91.6579    3.8414 C.ar    1  UNL1        0.1553
     55 O          60.7726   90.6768    4.9169 O.2     1  UNL1       -0.4555
@<TRIPOS>BOND
     1     6     7    2
     2     7     8   am
     3    10     8    1
     4    10    11    1
     5    11    12   ar
     6    12    13   ar
     7    13    14   ar
     8    14    15   ar
     9    15    16   ar
    10    16    17    1
    11    17    18    1
    12    18    19    1
    13    19    20    1
    14     7     5    1
    15     5    22    1
    16    22    23    1
    17    23    24   ar
    18    24    25   ar
    19    25    26   ar
    20    26    27   ar
    21    27    28   ar
    22     5     4    1
    23     4     1    1
    24     1     2    1
    25     1    29    1
    26    29    30    1
    27    30    31    1
    28    31    32    1
    29    32    33    1
    30    33    45    1
    31    45    46    1
    32    46    47   ar
    33    47    48   ar
    34    48    49   ar
    35    49    50   ar
    36    50    51   ar
    37    51    52   ar
    38    52    53    1
    39    52    54   ar
    40    54    55   ar
    41    33    34    1
    42    34    35    1
    43    35    36    1
    44    36    37    2
    45    36    38   am
    46    38    40    1
    47    40    41    1
    48    41    42    1
    49    41    43    1
    50    41    44    1
    51    19    10    1
    52    28    23   ar
    53    35    30    1
    54    16    11   ar
    55    55    46   ar
    56    54    48   ar
    57     8     9    1
    58    20    21    1
    59     2     3    1
    60    38    39    1
@<TRIPOS>MOLECULE
*****
 55 60 0 0 0
SMALL
GASTEIGER

@<TRIPOS>ATOM
      1 C          62.2480   86.6169   10.9326 C.3     1  UNL1        0.1269
      2 O          62.7557   85.6478    9.9064 O.3     1  UNL1       -0.3830
      3 H          62.0282   85.3870    9.3202 H       1  UNL1        0.2104
      4 C          63.1830   87.1751   11.9642 C.3     1  UNL1        0.0401
      5 C          63.5589   86.3511   13.1599 C.3     1  UNL1        0.0833
      6 O          61.5964   84.8149   13.8937 O.2     1  UNL1       -0.2751
      7 C          62.9796   84.9789   13.3373 C.2     1  UNL1        0.2226
      8 N          63.7837   83.7706   12.9582 N.am    1  UNL1       -0.2999
      9 H          64.6916   83.8783   12.5930 H       1  UNL1        0.1498
     10 C          63.2044   82.3984   13.1356 C.3     1  UNL1        0.1278
     11 C          63.1474   81.4524   11.9729 C.ar    1  UNL1        0.0320
     12 C          63.6696   81.8785   10.6329 C.ar    1  UNL1        0.0004
     13 C          63.6125   80.9325    9.4703 C.ar    1  UNL1       -0.0001
     14 C          63.0333   79.5603    9.6476 C.ar    1  UNL1        0.0031
     15 C          62.5111   79.1341   10.9876 C.ar    1  UNL1        0.0366
     16 C          62.5682   80.0802   12.1503 C.ar    1  UNL1        0.1362
     17 O          62.0460   79.6539   13.4903 O.3     1  UNL1       -0.4730
     18 C          62.1030   80.6000   14.6530 C.3     1  UNL1        0.2364
     19 C          62.6823   81.9723   14.4756 C.3     1  UNL1        0.1762
     20 O          62.7393   82.9183   15.6382 O.3     1  UNL1       -0.3788
     21 H          62.3639   82.4892   16.4229 H       1  UNL1        0.2106
     22 C          64.5142   86.8993   14.1782 C.3     1  UNL1        0.0371
     23 C          64.1635   88.1407   14.9437 C.ar    1  UNL1       -0.0025
     24 C          64.5670   89.4859   14.4167 C.ar    1  UNL1       -0.0011
     25 C          64.2163   90.7273   15.1823 C.ar    1  UNL1        0.0204
     26 C          63.4621   90.6234   16.4747 C.ar    1  UNL1        0.0989
     27 N          63.0586   89.2783   17.0016 N.ar    1  UNL1       -0.2426
     28 C          63.4092   88.0369   16.2361 C.ar    1  UNL1        0.0946
     29 C          60.8054   87.0278   10.9272 C.3     1  UNL1        0.1021
     30 N          60.2283   87.7238    9.7303 N.3     1  UNL1       -0.2621
     31 C          59.4535   86.9433    8.7101 C.3     1  UNL1        0.0901
     32 C          58.8764   87.6393    7.5132 C.3     1  UNL1        0.0900
     33 N          59.0741   89.1157    7.3365 N.3     1  UNL1       -0.2635
     34 C          59.8488   89.8961    8.3567 C.3     1  UNL1        0.0980
     35 C          60.4259   89.2001    9.5536 C.3     1  UNL1        0.1510
     36 C          61.2007   89.9805   10.5737 C.2     1  UNL1        0.2386
     37 O          60.5160   90.4885   11.8079 O.2     1  UNL1       -0.2736
     38 N          62.6602   90.2528   10.3598 N.am    1  UNL1       -0.2961
     39 H          63.1096   89.9194    9.5498 H       1  UNL1        0.1497
     40 C          63.4349   91.0332   11.3799 C.3     1  UNL1        0.1939
     41 C          64.4588   92.0363   10.9378 C.3     1  UNL1        0.4154
     42 F          65.4826   93.0395   10.4957 F       1  UNL1       -0.1682
     43 F          65.2829   91.7310   12.1534 F       1  UNL1       -0.1682
     44 F          63.6347   92.3416    9.7223 F       1  UNL1       -0.1682
     45 C          58.4970   89.8117    6.1396 C.3     1  UNL1        0.1377
     46 C          59.3860   90.6182    5.2400 C.ar    1  UNL1        0.1390
     47 C          59.0126   91.8933    4.5438 C.ar    1  UNL1        0.0374
     48 C          60.2004   92.3542    3.7522 C.ar    1  UNL1        0.0381
     49 C          60.4166   93.5477    2.8696 C.ar    1  UNL1        0.0032
     50 C          61.7403   93.7509    2.1940 C.ar    1  UNL1        0.0011
     51 C          62.8478   92.7607    2.4009 C.ar    1  UNL1        0.0145
     52 C          62.6316   91.5672    3.2834 C.ar    1  UNL1        0.0921
     53 CL         63.7391   90.5770    3.4903 Cl      1  UNL1       -0.0791
     54 C          61.3080   91.3640    3.9590 C.ar    1  UNL1        0.1553
     55 O          60.8046   90.2910    4.8785 O.2     1  UNL1       -0.4555
@<TRIPOS>BOND
     1     6     7    2
     2     7     8   am
     3    10     8    1
     4    10    11    1
     5    11    12   ar
     6    12    13   ar
     7    13    14   ar
     8    14    15   ar
     9    15    16   ar
    10    16    17    1
    11    17    18    1
    12    18    19    1
    13    19    20    1
    14     7     5    1
    15     5    22    1
    16    22    23    1
    17    23    24   ar
    18    24    25   ar
    19    25    26   ar
    20    26    27   ar
    21    27    28   ar
    22     5     4    1
    23     4     1    1
    24     1     2    1
    25     1    29    1
    26    29    30    1
    27    30    31    1
    28    31    32    1
    29    32    33    1
    30    33    45    1
    31    45    46    1
    32    46    47   ar
    33    47    48   ar
    34    48    49   ar
    35    49    50   ar
    36    50    51   ar
    37    51    52   ar
    38    52    53    1
    39    52    54   ar
    40    54    55   ar
    41    33    34    1
    42    34    35    1
    43    35    36    1
    44    36    37    2
    45    36    38   am
    46    38    40    1
    47    40    41    1
    48    41    42    1
    49    41    43    1
    50    41    44    1
    51    19    10    1
    52    28    23   ar
    53    35    30    1
    54    16    11   ar
    55    55    46   ar
    56    54    48   ar
    57     8     9    1
    58    20    21    1
    59     2     3    1
    60    38    39    1
@<TRIPOS>MOLECULE
*****
 55 60 0 0 0
SMALL
GASTEIGER

@<TRIPOS>ATOM
      1 C          62.6314   88.4089   12.3008 C.3     1  UNL1        0.1269
      2 O          61.9240   89.7007   12.5853 O.3     1  UNL1       -0.3830
      3 H          61.1602   89.7881   11.9938 H       1  UNL1        0.2104
      4 C          63.8534   88.0343   13.0859 C.3     1  UNL1        0.0401
      5 C          64.1527   88.7257   14.3829 C.3     1  UNL1        0.0833
      6 O          63.5664   91.2295   14.7535 O.2     1  UNL1       -0.2751
      7 C          64.5616   90.1689   14.3866 C.2     1  UNL1        0.2226
      8 N          65.9658   90.5515   14.0233 N.am    1  UNL1       -0.2999
      9 H          66.6189   89.8554   13.7824 H       1  UNL1        0.1498
     10 C          66.3747   91.9946   14.0269 C.3     1  UNL1        0.1278
     11 C          66.0925   92.8572   12.8326 C.ar    1  UNL1        0.0320
     12 C          65.4015   92.2766   11.6346 C.ar    1  UNL1        0.0004
     13 C          65.1193   93.1391   10.4403 C.ar    1  UNL1       -0.0001
     14 C          65.5282   94.5823   10.4440 C.ar    1  UNL1        0.0031
     15 C          66.2193   95.1629   11.6420 C.ar    1  UNL1        0.0366
     16 C          66.5015   94.3003   12.8363 C.ar    1  UNL1        0.1362
     17 O          67.1926   94.8810   14.0343 O.3     1  UNL1       -0.4730
     18 C          67.4748   94.0185   15.2287 C.3     1  UNL1        0.2364
     19 C          67.0658   92.5752   15.2249 C.3     1  UNL1        0.1762
     20 O          67.3479   91.7127   16.4193 O.3     1  UNL1       -0.3788
     21 H          67.7960   92.2392   17.0997 H       1  UNL1        0.2106
     22 C          64.0431   87.9739   15.6763 C.3     1  UNL1        0.0371
     23 C          63.8000   86.4938   15.6652 C.ar    1  UNL1       -0.0025
     24 C          64.7111   85.5899   14.8889 C.ar    1  UNL1       -0.0011
     25 C          64.4680   84.1097   14.8779 C.ar    1  UNL1        0.0204
     26 C          63.3137   83.5336   15.6431 C.ar    1  UNL1        0.0989
     27 N          62.4026   84.4375   16.4195 N.ar    1  UNL1       -0.2426
     28 C          62.6457   85.9176   16.4305 C.ar    1  UNL1        0.0946
     29 C          62.1168   87.4918   11.2311 C.3     1  UNL1        0.1021
     30 N          61.2986   88.0424   10.1009 N.3     1  UNL1       -0.2621
     31 C          60.5931   89.3570   10.2567 C.3     1  UNL1        0.0901
     32 C          59.7748   89.9076    9.1266 C.3     1  UNL1        0.0900
     33 N          59.6620   89.1437    7.8406 N.3     1  UNL1       -0.2635
     34 C          60.3675   87.8291    7.6848 C.3     1  UNL1        0.0980
     35 C          61.1857   87.2785    8.8150 C.3     1  UNL1        0.1510
     36 C          61.8912   85.9640    8.6592 C.2     1  UNL1        0.2386
     37 O          61.8010   85.2133    7.3637 O.2     1  UNL1       -0.2736
     38 N          62.6870   85.4001    9.7989 N.am    1  UNL1       -0.2961
     39 H          62.7462   85.8929   10.6492 H       1  UNL1        0.1497
     40 C          63.3924   84.0856    9.6432 C.3     1  UNL1        0.1939
     41 C          63.8743   83.3447   10.8552 C.3     1  UNL1        0.4154
     42 F          64.3562   82.6039   12.0672 F       1  UNL1       -0.1682
     43 F          63.2355   84.3748   11.7389 F       1  UNL1       -0.1682
     44 F          64.5131   82.3147    9.9716 F       1  UNL1       -0.1682
     45 C          58.8437   89.6943    6.7104 C.3     1  UNL1        0.1377
     46 C          59.4976   90.5254    5.6465 C.ar    1  UNL1        0.1390
     47 C          58.8671   91.6700    4.9101 C.ar    1  UNL1        0.0374
     48 C          59.8765   92.2098    3.9407 C.ar    1  UNL1        0.0381
     49 C          59.8156   93.3350    2.9507 C.ar    1  UNL1        0.0032
     50 C          61.0091   93.6492    2.0981 C.ar    1  UNL1        0.0011
     51 C          62.2634   92.8382    2.2354 C.ar    1  UNL1        0.0145
     52 C          62.3243   91.7130    3.2254 C.ar    1  UNL1        0.0921
     53 CL         63.5786   90.9019    3.3627 Cl      1  UNL1       -0.0791
     54 C          61.1309   91.3987    4.0781 C.ar    1  UNL1        0.1553
     55 O          60.8967   90.3577    5.1323 O.2     1  UNL1       -0.4555
@<TRIPOS>BOND
     1     6     7    2
     2     7     8   am
     3    10     8    1
     4    10    11    1
     5    11    12   ar
     6    12    13   ar
     7    13    14   ar
     8    14    15   ar
     9    15    16   ar
    10    16    17    1
    11    17    18    1
    12    18    19    1
    13    19    20    1
    14     7     5    1
    15     5    22    1
    16    22    23    1
    17    23    24   ar
    18    24    25   ar
    19    25    26   ar
    20    26    27   ar
    21    27    28   ar
    22     5     4    1
    23     4     1    1
    24     1     2    1
    25     1    29    1
    26    29    30    1
    27    30    31    1
    28    31    32    1
    29    32    33    1
    30    33    45    1
    31    45    46    1
    32    46    47   ar
    33    47    48   ar
    34    48    49   ar
    35    49    50   ar
    36    50    51   ar
    37    51    52   ar
    38    52    53    1
    39    52    54   ar
    40    54    55   ar
    41    33    34    1
    42    34    35    1
    43    35    36    1
    44    36    37    2
    45    36    38   am
    46    38    40    1
    47    40    41    1
    48    41    42    1
    49    41    43    1
    50    41    44    1
    51    19    10    1
    52    28    23   ar
    53    35    30    1
    54    16    11   ar
    55    55    46   ar
    56    54    48   ar
    57     8     9    1
    58    20    21    1
    59     2     3    1
    60    38    39    1
@<TRIPOS>MOLECULE
*****
 55 60 0 0 0
SMALL
GASTEIGER

@<TRIPOS>ATOM
      1 C          62.6064   88.5447   11.7733 C.3     1  UNL1        0.1269
      2 O          62.7396   90.0157   11.5119 O.3     1  UNL1       -0.3830
      3 H          62.0656   90.2927   10.8717 H       1  UNL1        0.2104
      4 C          63.5379   87.8662   12.7334 C.3     1  UNL1        0.0401
      5 C          63.9301   88.5512   14.0089 C.3     1  UNL1        0.0833
      6 O          63.6253   90.9808   14.8774 O.2     1  UNL1       -0.2751
      7 C          64.3302   89.9968   13.9915 C.2     1  UNL1        0.2226
      8 N          65.4352   90.4583   13.0882 N.am    1  UNL1       -0.2999
      9 H          65.8978   89.8125   12.5067 H       1  UNL1        0.1498
     10 C          65.8353   91.9038   13.0708 C.3     1  UNL1        0.1278
     11 C          66.7288   92.4477   14.1459 C.ar    1  UNL1        0.0320
     12 C          67.2221   91.5461   15.2384 C.ar    1  UNL1        0.0004
     13 C          68.1156   92.0900   16.3136 C.ar    1  UNL1       -0.0001
     14 C          68.5157   93.5355   16.2962 C.ar    1  UNL1        0.0031
     15 C          68.0224   94.4371   15.2036 C.ar    1  UNL1        0.0366
     16 C          67.1289   93.8932   14.1285 C.ar    1  UNL1        0.1362
     17 O          66.6355   94.7949   13.0360 O.3     1  UNL1       -0.4730
     18 C          65.7421   94.2510   11.9608 C.3     1  UNL1        0.2364
     19 C          65.3419   92.8054   11.9783 C.3     1  UNL1        0.1762
     20 O          64.4485   92.2616   10.9031 O.3     1  UNL1       -0.3788
     21 H          64.2231   92.9705   10.2807 H       1  UNL1        0.2106
     22 C          63.9221   87.7907   15.3018 C.3     1  UNL1        0.0371
     23 C          63.9248   86.2908   15.2897 C.ar    1  UNL1       -0.0025
     24 C          65.0186   85.5484   14.5808 C.ar    1  UNL1       -0.0011
     25 C          65.0212   84.0484   14.5687 C.ar    1  UNL1        0.0204
     26 C          63.9301   83.2908   15.2655 C.ar    1  UNL1        0.0989
     27 N          62.8363   84.0332   15.9743 N.ar    1  UNL1       -0.2426
     28 C          62.8336   85.5331   15.9864 C.ar    1  UNL1        0.0946
     29 C          61.5415   87.7522   11.0746 C.3     1  UNL1        0.1021
     30 N          60.8320   88.3327    9.8873 N.3     1  UNL1       -0.2621
     31 C          60.1906   89.6853    9.9843 C.3     1  UNL1        0.0901
     32 C          59.4812   90.2657    8.7970 C.3     1  UNL1        0.0900
     33 N          59.4131   89.4937    7.5127 N.3     1  UNL1       -0.2635
     34 C          60.0545   88.1412    7.4157 C.3     1  UNL1        0.0980
     35 C          60.7640   87.5607    8.6031 C.3     1  UNL1        0.1510
     36 C          61.4054   86.2083    8.5061 C.2     1  UNL1        0.2386
     37 O          60.8755   85.1947    7.5356 O.2     1  UNL1       -0.2736
     38 N          62.5767   85.8693    9.3797 N.am    1  UNL1       -0.2961
     39 H          62.9245   86.5345   10.0167 H       1  UNL1        0.1497
     40 C          63.2181   84.5169    9.2828 C.3     1  UNL1        0.1939
     41 C          63.6197   83.7861   10.5297 C.3     1  UNL1        0.4154
     42 F          64.0213   83.0553   11.7765 F       1  UNL1       -0.1682
     43 F          62.8648   84.7835   11.3574 F       1  UNL1       -0.1682
     44 F          64.3746   82.7887    9.7020 F       1  UNL1       -0.1682
     45 C          58.7037   90.0742    6.3254 C.3     1  UNL1        0.1377
     46 C          59.4740   90.8445    5.2942 C.ar    1  UNL1        0.1390
     47 C          58.9650   92.0144    4.5053 C.ar    1  UNL1        0.0374
     48 C          60.0650   92.4731    3.5945 C.ar    1  UNL1        0.0381
     49 C          60.1377   93.5834    2.5886 C.ar    1  UNL1        0.0032
     50 C          61.3993   93.8074    1.8085 C.ar    1  UNL1        0.0011
     51 C          62.5881   92.9210    2.0345 C.ar    1  UNL1        0.0145
     52 C          62.5154   91.8107    3.0405 C.ar    1  UNL1        0.0921
     53 CL         63.7041   90.9243    3.2664 Cl      1  UNL1       -0.0791
     54 C          61.2539   91.5867    3.8204 C.ar    1  UNL1        0.1553
     55 O          60.8886   90.5802    4.8709 O.2     1  UNL1       -0.4555
@<TRIPOS>BOND
     1     6     7    2
     2     7     8   am
     3    10     8    1
     4    10    11    1
     5    11    12   ar
     6    12    13   ar
     7    13    14   ar
     8    14    15   ar
     9    15    16   ar
    10    16    17    1
    11    17    18    1
    12    18    19    1
    13    19    20    1
    14     7     5    1
    15     5    22    1
    16    22    23    1
    17    23    24   ar
    18    24    25   ar
    19    25    26   ar
    20    26    27   ar
    21    27    28   ar
    22     5     4    1
    23     4     1    1
    24     1     2    1
    25     1    29    1
    26    29    30    1
    27    30    31    1
    28    31    32    1
    29    32    33    1
    30    33    45    1
    31    45    46    1
    32    46    47   ar
    33    47    48   ar
    34    48    49   ar
    35    49    50   ar
    36    50    51   ar
    37    51    52   ar
    38    52    53    1
    39    52    54   ar
    40    54    55   ar
    41    33    34    1
    42    34    35    1
    43    35    36    1
    44    36    37    2
    45    36    38   am
    46    38    40    1
    47    40    41    1
    48    41    42    1
    49    41    43    1
    50    41    44    1
    51    19    10    1
    52    28    23   ar
    53    35    30    1
    54    16    11   ar
    55    55    46   ar
    56    54    48   ar
    57     8     9    1
    58    20    21    1
    59     2     3    1
    60    38    39    1
@<TRIPOS>MOLECULE
*****
 55 60 0 0 0
SMALL
GASTEIGER

@<TRIPOS>ATOM
      1 C          61.8998   90.4199   10.8757 C.3     1  UNL1        0.1269
      2 O          60.7213   91.3477   10.8887 O.3     1  UNL1       -0.3830
      3 H          60.7479   91.8930   11.6905 H       1  UNL1        0.2104
      4 C          62.0904   89.4655    9.7342 C.3     1  UNL1        0.0401
      5 C          60.8972   88.8877    9.0325 C.3     1  UNL1        0.0833
      6 O          59.1449   90.7672    8.6492 O.2     1  UNL1       -0.2751
      7 C          60.0903   89.7408    8.0991 C.2     1  UNL1        0.2226
      8 N          60.2287   89.5673    6.6156 N.am    1  UNL1       -0.2999
      9 H          60.8492   88.8936    6.2545 H       1  UNL1        0.1498
     10 C          59.4218   90.4203    5.6822 C.3     1  UNL1        0.1278
     11 C          60.1094   91.2349    4.6269 C.ar    1  UNL1        0.0320
     12 C          61.6039   91.1965    4.5050 C.ar    1  UNL1        0.0004
     13 C          62.2915   92.0111    3.4497 C.ar    1  UNL1       -0.0001
     14 C          61.4846   92.8641    2.5163 C.ar    1  UNL1        0.0031
     15 C          59.9901   92.9024    2.6382 C.ar    1  UNL1        0.0366
     16 C          59.3025   92.0878    3.6935 C.ar    1  UNL1        0.1362
     17 O          57.8079   92.1262    3.8153 O.3     1  UNL1       -0.4730
     18 C          57.1203   91.3116    4.8706 C.3     1  UNL1        0.2364
     19 C          57.9273   90.4586    5.8041 C.3     1  UNL1        0.1762
     20 O          57.2397   89.6440    6.8593 O.3     1  UNL1       -0.3788
     21 H          56.2813   89.7822    6.8012 H       1  UNL1        0.2106
     22 C          60.5110   87.4569    9.2641 C.3     1  UNL1        0.0371
     23 C          61.0465   86.3809    8.3667 C.ar    1  UNL1       -0.0025
     24 C          62.4571   85.8986    8.5330 C.ar    1  UNL1       -0.0011
     25 C          62.9926   84.8225    7.6356 C.ar    1  UNL1        0.0204
     26 C          62.1174   84.2287    6.5719 C.ar    1  UNL1        0.0989
     27 N          60.7068   84.7109    6.4056 N.ar    1  UNL1       -0.2426
     28 C          60.1714   85.7869    7.3030 C.ar    1  UNL1        0.0946
     29 C          62.8877   90.4463   12.0041 C.3     1  UNL1        0.1021
     30 N          63.2696   89.1717   12.6966 N.3     1  UNL1       -0.2621
     31 C          62.8378   87.8517   12.1297 C.3     1  UNL1        0.0901
     32 C          63.2197   86.5771   12.8222 C.3     1  UNL1        0.0900
     33 N          64.0334   86.6225   14.0816 N.3     1  UNL1       -0.2635
     34 C          64.4651   87.9424   14.6484 C.3     1  UNL1        0.0980
     35 C          64.0832   89.2171   13.9560 C.3     1  UNL1        0.1510
     36 C          64.5149   90.5370   14.5228 C.2     1  UNL1        0.2386
     37 O          63.5972   91.2988   15.4324 O.2     1  UNL1       -0.2736
     38 N          65.8644   91.0952   14.1800 N.am    1  UNL1       -0.2961
     39 H          66.4667   90.5952   13.5829 H       1  UNL1        0.1497
     40 C          66.2961   92.4151   14.7468 C.3     1  UNL1        0.1939
     41 C          67.5317   92.4998   15.5932 C.3     1  UNL1        0.4154
     42 F          68.7672   92.5846   16.4396 F       1  UNL1       -0.1682
     43 F          68.3737   92.1661   14.3975 F       1  UNL1       -0.1682
     44 F          66.6897   92.8336   16.7888 F       1  UNL1       -0.1682
     45 C          64.4152   85.3479   14.7741 C.3     1  UNL1        0.1377
     46 C          63.9478   84.0301   14.2309 C.ar    1  UNL1        0.1390
     47 C          63.2923   82.9345   15.0182 C.ar    1  UNL1        0.0374
     48 C          62.9932   81.8039   14.0789 C.ar    1  UNL1        0.0381
     49 C          62.3531   80.4642   14.2924 C.ar    1  UNL1        0.0032
     50 C          62.1836   79.5215   13.1380 C.ar    1  UNL1        0.0011
     51 C          62.6542   79.9184   11.7702 C.ar    1  UNL1        0.0145
     52 C          63.2943   81.2580   11.5567 C.ar    1  UNL1        0.0921
     53 CL         63.7649   81.6550   10.1889 Cl      1  UNL1       -0.0791
     54 C          63.4638   82.2008   12.7110 C.ar    1  UNL1        0.1553
     55 O          64.0538   83.5767   12.8050 O.2     1  UNL1       -0.4555
@<TRIPOS>BOND
     1     6     7    2
     2     7     8   am
     3    10     8    1
     4    10    11    1
     5    11    12   ar
     6    12    13   ar
     7    13    14   ar
     8    14    15   ar
     9    15    16   ar
    10    16    17    1
    11    17    18    1
    12    18    19    1
    13    19    20    1
    14     7     5    1
    15     5    22    1
    16    22    23    1
    17    23    24   ar
    18    24    25   ar
    19    25    26   ar
    20    26    27   ar
    21    27    28   ar
    22     5     4    1
    23     4     1    1
    24     1     2    1
    25     1    29    1
    26    29    30    1
    27    30    31    1
    28    31    32    1
    29    32    33    1
    30    33    45    1
    31    45    46    1
    32    46    47   ar
    33    47    48   ar
    34    48    49   ar
    35    49    50   ar
    36    50    51   ar
    37    51    52   ar
    38    52    53    1
    39    52    54   ar
    40    54    55   ar
    41    33    34    1
    42    34    35    1
    43    35    36    1
    44    36    37    2
    45    36    38   am
    46    38    40    1
    47    40    41    1
    48    41    42    1
    49    41    43    1
    50    41    44    1
    51    19    10    1
    52    28    23   ar
    53    35    30    1
    54    16    11   ar
    55    55    46   ar
    56    54    48   ar
    57     8     9    1
    58    20    21    1
    59     2     3    1
    60    38    39    1
@<TRIPOS>MOLECULE
*****
 55 60 0 0 0
SMALL
GASTEIGER

@<TRIPOS>ATOM
      1 C          59.7552   93.8326    1.3749 C.3     1  UNL1        0.1269
      2 O          59.1609   92.6105    0.7399 O.3     1  UNL1       -0.3830
      3 H          59.2530   91.8558    1.3423 H       1  UNL1        0.2104
      4 C          59.7395   95.1414    0.6422 C.3     1  UNL1        0.0401
      5 C          60.5521   95.3113   -0.6070 C.3     1  UNL1        0.0833
      6 O          59.1646   96.4462   -2.4877 O.2     1  UNL1       -0.2751
      7 C          59.8862   95.2463   -1.9496 C.2     1  UNL1        0.2226
      8 N          59.9419   93.9815   -2.7539 N.am    1  UNL1       -0.2999
      9 H          60.4155   93.1939   -2.4007 H       1  UNL1        0.1498
     10 C          59.2760   93.9164   -4.0964 C.3     1  UNL1        0.1278
     11 C          58.0677   93.0497   -4.2931 C.ar    1  UNL1        0.0320
     12 C          57.5252   92.2479   -3.1473 C.ar    1  UNL1        0.0004
     13 C          56.3169   91.3812   -3.3439 C.ar    1  UNL1       -0.0001
     14 C          55.6510   91.3161   -4.6864 C.ar    1  UNL1        0.0031
     15 C          56.1935   92.1179   -5.8322 C.ar    1  UNL1        0.0366
     16 C          57.4018   92.9846   -5.6356 C.ar    1  UNL1        0.1362
     17 O          57.9442   93.7864   -6.7815 O.3     1  UNL1       -0.4730
     18 C          59.1525   94.6531   -6.5848 C.3     1  UNL1        0.2364
     19 C          59.8184   94.7181   -5.2422 C.3     1  UNL1        0.1762
     20 O          61.0268   95.5849   -5.0456 O.3     1  UNL1       -0.3788
     21 H          61.2438   96.0311   -5.8791 H       1  UNL1        0.2106
     22 C          62.0307   95.5463   -0.5138 C.3     1  UNL1        0.0371
     23 C          62.8951   95.3761   -1.7278 C.ar    1  UNL1       -0.0025
     24 C          63.4186   94.0182   -2.0914 C.ar    1  UNL1       -0.0011
     25 C          64.2831   93.8481   -3.3054 C.ar    1  UNL1        0.0204
     26 C          64.6241   95.0357   -4.1558 C.ar    1  UNL1        0.0989
     27 N          64.1006   96.3936   -3.7922 N.ar    1  UNL1       -0.2426
     28 C          63.2361   96.5638   -2.5782 C.ar    1  UNL1        0.0946
     29 C          60.3651   93.7459    2.7426 C.3     1  UNL1        0.1021
     30 N          59.9814   92.6273    3.6654 N.3     1  UNL1       -0.2621
     31 C          58.6025   92.5803    4.2541 C.3     1  UNL1        0.0901
     32 C          58.2187   91.4618    5.1769 C.3     1  UNL1        0.0900
     33 N          59.2139   90.3902    5.5110 N.3     1  UNL1       -0.2635
     34 C          60.5927   90.4372    4.9223 C.3     1  UNL1        0.0980
     35 C          60.9764   91.5558    3.9994 C.3     1  UNL1        0.1510
     36 C          62.3552   91.6028    3.4107 C.2     1  UNL1        0.2386
     37 O          63.3229   90.4881    3.6770 O.2     1  UNL1       -0.2736
     38 N          62.7664   92.7647    2.5556 N.am    1  UNL1       -0.2961
     39 H          62.1313   93.4964    2.3809 H       1  UNL1        0.1497
     40 C          64.1452   92.8117    1.9669 C.3     1  UNL1        0.1939
     41 C          64.6844   94.1010    1.4218 C.3     1  UNL1        0.4154
     42 F          65.2237   95.3902    0.8767 F       1  UNL1       -0.1682
     43 F          63.6102   94.8567    2.1463 F       1  UNL1       -0.1682
     44 F          65.7587   93.3453    0.6973 F       1  UNL1       -0.1682
     45 C          58.8301   89.2716    6.4338 C.3     1  UNL1        0.1377
     46 C          59.7044   88.9317    7.6044 C.ar    1  UNL1        0.1390
     47 C          59.9290   87.5599    8.1681 C.ar    1  UNL1        0.0374
     48 C          60.8709   87.6843    9.3288 C.ar    1  UNL1        0.0381
     49 C          61.4493   86.6656   10.2657 C.ar    1  UNL1        0.0032
     50 C          62.3852   87.0956   11.3563 C.ar    1  UNL1        0.0011
     51 C          62.7427   88.5442   11.5099 C.ar    1  UNL1        0.0145
     52 C          62.1643   89.5629   10.5730 C.ar    1  UNL1        0.0921
     53 CL         62.5218   91.0115   10.7267 Cl      1  UNL1       -0.0791
     54 C          61.2285   89.1330    9.4825 C.ar    1  UNL1        0.1553
     55 O          60.5075   89.9039    8.4167 O.2     1  UNL1       -0.4555
@<TRIPOS>BOND
     1     6     7    2
     2     7     8   am
     3    10     8    1
     4    10    11    1
     5    11    12   ar
     6    12    13   ar
     7    13    14   ar
     8    14    15   ar
     9    15    16   ar
    10    16    17    1
    11    17    18    1
    12    18    19    1
    13    19    20    1
    14     7     5    1
    15     5    22    1
    16    22    23    1
    17    23    24   ar
    18    24    25   ar
    19    25    26   ar
    20    26    27   ar
    21    27    28   ar
    22     5     4    1
    23     4     1    1
    24     1     2    1
    25     1    29    1
    26    29    30    1
    27    30    31    1
    28    31    32    1
    29    32    33    1
    30    33    45    1
    31    45    46    1
    32    46    47   ar
    33    47    48   ar
    34    48    49   ar
    35    49    50   ar
    36    50    51   ar
    37    51    52   ar
    38    52    53    1
    39    52    54   ar
    40    54    55   ar
    41    33    34    1
    42    34    35    1
    43    35    36    1
    44    36    37    2
    45    36    38   am
    46    38    40    1
    47    40    41    1
    48    41    42    1
    49    41    43    1
    50    41    44    1
    51    19    10    1
    52    28    23   ar
    53    35    30    1
    54    16    11   ar
    55    55    46   ar
    56    54    48   ar
    57     8     9    1
    58    20    21    1
    59     2     3    1
    60    38    39    1
@<TRIPOS>MOLECULE
*****
 55 60 0 0 0
SMALL
GASTEIGER

@<TRIPOS>ATOM
      1 C          59.7780   93.7482    1.4942 C.3     1  UNL1        0.1269
      2 O          59.7208   92.4656    0.7186 O.3     1  UNL1       -0.3830
      3 H          60.0130   91.7330    1.2832 H       1  UNL1        0.2104
      4 C          59.3739   95.0374    0.8425 C.3     1  UNL1        0.0401
      5 C          59.9450   95.4143   -0.4923 C.3     1  UNL1        0.0833
      6 O          59.2388   96.7400   -2.6122 O.2     1  UNL1       -0.2751
      7 C          59.0379   95.5866   -1.6746 C.2     1  UNL1        0.2226
      8 N          57.9298   94.6056   -1.9190 N.am    1  UNL1       -0.2999
      9 H          57.7979   93.8486   -1.3036 H       1  UNL1        0.1498
     10 C          57.0228   94.7779   -3.1011 C.3     1  UNL1        0.1278
     11 C          55.6380   95.3223   -2.9109 C.ar    1  UNL1        0.0320
     12 C          55.1604   95.6944   -1.5386 C.ar    1  UNL1        0.0004
     13 C          53.7757   96.2387   -1.3484 C.ar    1  UNL1       -0.0001
     14 C          52.8686   96.4111   -2.5305 C.ar    1  UNL1        0.0031
     15 C          53.3462   96.0390   -3.9028 C.ar    1  UNL1        0.0366
     16 C          54.7310   95.4946   -4.0931 C.ar    1  UNL1        0.1362
     17 O          55.2086   95.1226   -5.4655 O.3     1  UNL1       -0.4730
     18 C          56.5933   94.5782   -5.6557 C.3     1  UNL1        0.2364
     19 C          57.5004   94.4058   -4.4735 C.3     1  UNL1        0.1762
     20 O          58.8851   93.8615   -4.6637 O.3     1  UNL1       -0.3788
     21 H          59.0325   93.6738   -5.6039 H       1  UNL1        0.2106
     22 C          61.4231   95.6188   -0.6451 C.3     1  UNL1        0.0371
     23 C          62.1469   95.0164   -1.8126 C.ar    1  UNL1       -0.0025
     24 C          62.2699   93.5262   -1.9311 C.ar    1  UNL1       -0.0011
     25 C          62.9938   92.9239   -3.0988 C.ar    1  UNL1        0.0204
     26 C          63.5945   93.8118   -4.1479 C.ar    1  UNL1        0.0989
     27 N          63.4715   95.3020   -4.0294 N.ar    1  UNL1       -0.2426
     28 C          62.7477   95.9044   -2.8618 C.ar    1  UNL1        0.0946
     29 C          60.2393   93.7417    2.9215 C.3     1  UNL1        0.1021
     30 N          59.9016   92.5839    3.8135 N.3     1  UNL1       -0.2621
     31 C          58.5374   92.4845    4.4293 C.3     1  UNL1        0.0901
     32 C          58.1998   91.3268    5.3213 C.3     1  UNL1        0.0900
     33 N          59.2263   90.2685    5.5975 N.3     1  UNL1       -0.2635
     34 C          60.5905   90.3679    4.9817 C.3     1  UNL1        0.0980
     35 C          60.9281   91.5257    4.0897 C.3     1  UNL1        0.1510
     36 C          62.2922   91.6251    3.4740 C.2     1  UNL1        0.2386
     37 O          63.4291   90.8241    4.0361 O.2     1  UNL1       -0.2736
     38 N          62.5196   92.5257    2.2961 N.am    1  UNL1       -0.2961
     39 H          61.7735   93.0514    1.9271 H       1  UNL1        0.1497
     40 C          63.8837   92.6251    1.6803 C.3     1  UNL1        0.1939
     41 C          64.3522   93.9273    1.1014 C.3     1  UNL1        0.4154
     42 F          64.8207   95.2293    0.5226 F       1  UNL1       -0.1682
     43 F          63.3106   94.6560    1.8976 F       1  UNL1       -0.1682
     44 F          65.3938   93.1985    0.3053 F       1  UNL1       -0.1682
     45 C          58.8887   89.1107    6.4895 C.3     1  UNL1        0.1377
     46 C          59.7573   88.7962    7.6713 C.ar    1  UNL1        0.1390
     47 C          59.9846   87.4360    8.2614 C.ar    1  UNL1        0.0374
     48 C          60.9189   87.5859    9.4252 C.ar    1  UNL1        0.0381
     49 C          61.4961   86.5871   10.3841 C.ar    1  UNL1        0.0032
     50 C          62.4235   87.0413   11.4722 C.ar    1  UNL1        0.0011
     51 C          62.7735   88.4941   11.6014 C.ar    1  UNL1        0.0145
     52 C          62.1964   89.4928   10.6426 C.ar    1  UNL1        0.0921
     53 CL         62.5464   90.9456   10.7719 Cl      1  UNL1       -0.0791
     54 C          61.2691   89.0388    9.5545 C.ar    1  UNL1        0.1553
     55 O          60.5511   89.7868    8.4705 O.2     1  UNL1       -0.4555
@<TRIPOS>BOND
     1     6     7    2
     2     7     8   am
     3    10     8    1
     4    10    11    1
     5    11    12   ar
     6    12    13   ar
     7    13    14   ar
     8    14    15   ar
     9    15    16   ar
    10    16    17    1
    11    17    18    1
    12    18    19    1
    13    19    20    1
    14     7     5    1
    15     5    22    1
    16    22    23    1
    17    23    24   ar
    18    24    25   ar
    19    25    26   ar
    20    26    27   ar
    21    27    28   ar
    22     5     4    1
    23     4     1    1
    24     1     2    1
    25     1    29    1
    26    29    30    1
    27    30    31    1
    28    31    32    1
    29    32    33    1
    30    33    45    1
    31    45    46    1
    32    46    47   ar
    33    47    48   ar
    34    48    49   ar
    35    49    50   ar
    36    50    51   ar
    37    51    52   ar
    38    52    53    1
    39    52    54   ar
    40    54    55   ar
    41    33    34    1
    42    34    35    1
    43    35    36    1
    44    36    37    2
    45    36    38   am
    46    38    40    1
    47    40    41    1
    48    41    42    1
    49    41    43    1
    50    41    44    1
    51    19    10    1
    52    28    23   ar
    53    35    30    1
    54    16    11   ar
    55    55    46   ar
    56    54    48   ar
    57     8     9    1
    58    20    21    1
    59     2     3    1
    60    38    39    1
@<TRIPOS>MOLECULE
*****
 55 60 0 0 0
SMALL
GASTEIGER

@<TRIPOS>ATOM
      1 C          61.8617   88.9328   12.1145 C.3     1  UNL1        0.1269
      2 O          60.9430   89.7329   12.9895 O.3     1  UNL1       -0.3830
      3 H          60.0235   89.5711   12.7262 H       1  UNL1        0.2104
      4 C          63.3459   89.0075   12.3188 C.3     1  UNL1        0.0401
      5 C          63.9503   88.5341   13.6073 C.3     1  UNL1        0.0833
      6 O          64.9442   86.5346   14.9356 O.2     1  UNL1       -0.2751
      7 C          63.9609   87.0710   13.9380 C.2     1  UNL1        0.2226
      8 N          62.9880   86.1444   13.2710 N.am    1  UNL1       -0.2999
      9 H          62.3426   86.4964   12.6163 H       1  UNL1        0.1498
     10 C          62.9985   84.6813   13.6016 C.3     1  UNL1        0.1278
     11 C          63.2946   83.6727   12.5316 C.ar    1  UNL1        0.0320
     12 C          63.5801   84.1271   11.1309 C.ar    1  UNL1        0.0004
     13 C          63.8762   83.1185   10.0609 C.ar    1  UNL1       -0.0001
     14 C          63.8867   81.6554   10.3915 C.ar    1  UNL1        0.0031
     15 C          63.6011   81.2010   11.7922 C.ar    1  UNL1        0.0366
     16 C          63.3051   82.2097   12.8622 C.ar    1  UNL1        0.1362
     17 O          63.0195   81.7552   14.2629 O.3     1  UNL1       -0.4730
     18 C          62.7234   82.7638   15.3330 C.3     1  UNL1        0.2364
     19 C          62.7129   84.2269   15.0023 C.3     1  UNL1        0.1762
     20 O          62.4168   85.2355   16.0724 O.3     1  UNL1       -0.3788
     21 H          62.2562   84.7780   16.9124 H       1  UNL1        0.2106
     22 C          64.5443   89.5238   14.5653 C.3     1  UNL1        0.0371
     23 C          65.2163   90.7601   14.0458 C.ar    1  UNL1       -0.0025
     24 C          66.5526   91.1719   14.5887 C.ar    1  UNL1       -0.0011
     25 C          67.2245   92.4083   14.0692 C.ar    1  UNL1        0.0204
     26 C          66.5602   93.2328   13.0067 C.ar    1  UNL1        0.0989
     27 N          65.2239   92.8210   12.4638 N.ar    1  UNL1       -0.2426
     28 C          64.5519   91.5847   12.9833 C.ar    1  UNL1        0.0946
     29 C          61.2963   88.0579   11.0351 C.3     1  UNL1        0.1021
     30 N          60.6126   88.6747    9.8510 N.3     1  UNL1       -0.2621
     31 C          60.0779   90.0735    9.9383 C.3     1  UNL1        0.0901
     32 C          59.3942   90.6903    8.7542 C.3     1  UNL1        0.0900
     33 N          59.2451   89.9083    7.4828 N.3     1  UNL1       -0.2635
     34 C          59.7798   88.5096    7.3956 C.3     1  UNL1        0.0980
     35 C          60.4635   87.8928    8.5797 C.3     1  UNL1        0.1510
     36 C          60.9982   86.4941    8.4924 C.2     1  UNL1        0.2386
     37 O          61.0265   85.6244    9.7142 O.2     1  UNL1       -0.2736
     38 N          61.5046   85.9650    7.1833 N.am    1  UNL1       -0.2961
     39 H          61.4860   86.5358    6.3814 H       1  UNL1        0.1497
     40 C          62.0392   84.5662    7.0960 C.3     1  UNL1        0.1939
     41 C          62.1000   83.8679    5.7699 C.3     1  UNL1        0.4154
     42 F          62.1607   83.1695    4.4438 F       1  UNL1       -0.1682
     43 F          60.7259   83.3119    5.9997 F       1  UNL1       -0.1682
     44 F          63.4740   84.4239    5.5401 F       1  UNL1       -0.1682
     45 C          58.5614   90.5251    6.2988 C.3     1  UNL1        0.1377
     46 C          59.3727   91.1909    5.2270 C.ar    1  UNL1        0.1390
     47 C          58.9120   92.3078    4.3380 C.ar    1  UNL1        0.0374
     48 C          60.0417   92.6637    3.4176 C.ar    1  UNL1        0.0381
     49 C          60.1649   93.6887    2.3294 C.ar    1  UNL1        0.0032
     50 C          61.4470   93.8167    1.5613 C.ar    1  UNL1        0.0011
     51 C          62.6059   92.9198    1.8815 C.ar    1  UNL1        0.0145
     52 C          62.4827   91.8948    2.9697 C.ar    1  UNL1        0.0921
     53 CL         63.6416   90.9979    3.2899 Cl      1  UNL1       -0.0791
     54 C          61.2007   91.7668    3.7378 C.ar    1  UNL1        0.1553
     55 O          60.7872   90.8565    4.8560 O.2     1  UNL1       -0.4555
@<TRIPOS>BOND
     1     6     7    2
     2     7     8   am
     3    10     8    1
     4    10    11    1
     5    11    12   ar
     6    12    13   ar
     7    13    14   ar
     8    14    15   ar
     9    15    16   ar
    10    16    17    1
    11    17    18    1
    12    18    19    1
    13    19    20    1
    14     7     5    1
    15     5    22    1
    16    22    23    1
    17    23    24   ar
    18    24    25   ar
    19    25    26   ar
    20    26    27   ar
    21    27    28   ar
    22     5     4    1
    23     4     1    1
    24     1     2    1
    25     1    29    1
    26    29    30    1
    27    30    31    1
    28    31    32    1
    29    32    33    1
    30    33    45    1
    31    45    46    1
    32    46    47   ar
    33    47    48   ar
    34    48    49   ar
    35    49    50   ar
    36    50    51   ar
    37    51    52   ar
    38    52    53    1
    39    52    54   ar
    40    54    55   ar
    41    33    34    1
    42    34    35    1
    43    35    36    1
    44    36    37    2
    45    36    38   am
    46    38    40    1
    47    40    41    1
    48    41    42    1
    49    41    43    1
    50    41    44    1
    51    19    10    1
    52    28    23   ar
    53    35    30    1
    54    16    11   ar
    55    55    46   ar
    56    54    48   ar
    57     8     9    1
    58    20    21    1
    59     2     3    1
    60    38    39    1
@<TRIPOS>MOLECULE
*****
 55 60 0 0 0
SMALL
GASTEIGER

@<TRIPOS>ATOM
      1 C          61.8266   86.4936    9.3352 C.3     1  UNL1        0.1269
      2 O          62.4078   85.3409    8.5715 O.3     1  UNL1       -0.3830
      3 H          61.7141   84.9252    8.0359 H       1  UNL1        0.2104
      4 C          62.6994   87.3075   10.2440 C.3     1  UNL1        0.0401
      5 C          62.6633   87.0744   11.7253 C.3     1  UNL1        0.0833
      6 O          64.2353   87.5242   13.7444 O.2     1  UNL1       -0.2751
      7 C          63.3435   88.0373   12.6529 C.2     1  UNL1        0.2226
      8 N          63.1318   89.5132   12.4889 N.am    1  UNL1       -0.2999
      9 H          62.5464   89.8499   11.7725 H       1  UNL1        0.1498
     10 C          63.8119   90.4760   13.4163 C.3     1  UNL1        0.1278
     11 C          64.7004   91.5502   12.8626 C.ar    1  UNL1        0.0320
     12 C          64.9088   91.6615   11.3813 C.ar    1  UNL1        0.0004
     13 C          65.7973   92.7357   10.8276 C.ar    1  UNL1       -0.0001
     14 C          66.4774   93.6986   11.7551 C.ar    1  UNL1        0.0031
     15 C          66.2690   93.5873   13.2363 C.ar    1  UNL1        0.0366
     16 C          65.3805   92.5131   13.7901 C.ar    1  UNL1        0.1362
     17 O          65.1721   92.4018   15.2714 O.3     1  UNL1       -0.4730
     18 C          64.2836   91.3276   15.8252 C.3     1  UNL1        0.2364
     19 C          63.6035   90.3647   14.8976 C.3     1  UNL1        0.1762
     20 O          62.7150   89.2905   15.4514 O.3     1  UNL1       -0.3788
     21 H          62.6895   89.3588   16.4186 H       1  UNL1        0.2106
     22 C          61.9471   85.8784   12.2792 C.3     1  UNL1        0.0371
     23 C          62.6939   84.5986   12.5126 C.ar    1  UNL1       -0.0025
     24 C          63.3611   83.8997   11.3653 C.ar    1  UNL1       -0.0011
     25 C          64.1079   82.6198   11.5987 C.ar    1  UNL1        0.0204
     26 C          64.1874   82.0390   12.9794 C.ar    1  UNL1        0.0989
     27 N          63.5202   82.7380   14.1267 N.ar    1  UNL1       -0.2426
     28 C          62.7735   84.0178   13.8933 C.ar    1  UNL1        0.0946
     29 C          60.3725   86.8325    9.1903 C.3     1  UNL1        0.1021
     30 N          59.9432   87.8965    8.2241 N.3     1  UNL1       -0.2621
     31 C          59.5989   87.5313    6.8105 C.3     1  UNL1        0.0901
     32 C          59.1696   88.5954    5.8444 C.3     1  UNL1        0.0900
     33 N          59.0844   90.0246    6.2918 N.3     1  UNL1       -0.2635
     34 C          59.4287   90.3897    7.7054 C.3     1  UNL1        0.0980
     35 C          59.8580   89.3257    8.6715 C.3     1  UNL1        0.1510
     36 C          60.2023   89.6908   10.0851 C.2     1  UNL1        0.2386
     37 O          61.4973   90.3852   10.3862 O.2     1  UNL1       -0.2736
     38 N          59.2515   89.3614   11.1976 N.am    1  UNL1       -0.2961
     39 H          58.4015   88.9057   10.9999 H       1  UNL1        0.1497
     40 C          59.5957   89.7266   12.6111 C.3     1  UNL1        0.1939
     41 C          58.9121   89.0336   13.7525 C.3     1  UNL1        0.4154
     42 F          58.2286   88.3408   14.8938 F       1  UNL1       -0.1682
     43 F          57.7436   88.7238   12.8645 F       1  UNL1       -0.1682
     44 F          60.0807   89.3435   14.6404 F       1  UNL1       -0.1682
     45 C          58.6551   91.0887    5.3257 C.3     1  UNL1        0.1377
     46 C          59.6525   91.6903    4.3806 C.ar    1  UNL1        0.1390
     47 C          61.1083   91.3392    4.2941 C.ar    1  UNL1        0.0374
     48 C          61.7248   92.1806    3.2162 C.ar    1  UNL1        0.0381
     49 C          63.1259   92.2661    2.6875 C.ar    1  UNL1        0.0032
     50 C          63.4524   93.2228    1.5793 C.ar    1  UNL1        0.0011
     51 C          62.3777   94.0940    0.9997 C.ar    1  UNL1        0.0145
     52 C          60.9765   94.0085    1.5283 C.ar    1  UNL1        0.0921
     53 CL         59.9018   94.8797    0.9487 Cl      1  UNL1       -0.0791
     54 C          60.6500   93.0519    2.6365 C.ar    1  UNL1        0.1553
     55 O          59.3694   92.7488    3.3562 O.2     1  UNL1       -0.4555
@<TRIPOS>BOND
     1     6     7    2
     2     7     8   am
     3    10     8    1
     4    10    11    1
     5    11    12   ar
     6    12    13   ar
     7    13    14   ar
     8    14    15   ar
     9    15    16   ar
    10    16    17    1
    11    17    18    1
    12    18    19    1
    13    19    20    1
    14     7     5    1
    15     5    22    1
    16    22    23    1
    17    23    24   ar
    18    24    25   ar
    19    25    26   ar
    20    26    27   ar
    21    27    28   ar
    22     5     4    1
    23     4     1    1
    24     1     2    1
    25     1    29    1
    26    29    30    1
    27    30    31    1
    28    31    32    1
    29    32    33    1
    30    33    45    1
    31    45    46    1
    32    46    47   ar
    33    47    48   ar
    34    48    49   ar
    35    49    50   ar
    36    50    51   ar
    37    51    52   ar
    38    52    53    1
    39    52    54   ar
    40    54    55   ar
    41    33    34    1
    42    34    35    1
    43    35    36    1
    44    36    37    2
    45    36    38   am
    46    38    40    1
    47    40    41    1
    48    41    42    1
    49    41    43    1
    50    41    44    1
    51    19    10    1
    52    28    23   ar
    53    35    30    1
    54    16    11   ar
    55    55    46   ar
    56    54    48   ar
    57     8     9    1
    58    20    21    1
    59     2     3    1
    60    38    39    1
