@<TRIPOS>MOLECULE
*****
 23 25 0 0 0
SMALL
GASTEIGER

@<TRIPOS>ATOM
      1 C          61.4987   88.2193   10.8510 C.ar    1  UNL1       -0.0158
      2 C          62.2450   86.9694   11.2124 C.ar    1  UNL1        0.0050
      3 S          61.9768   85.9457   10.1494 S.2     1  UNL1       -0.0915
      4 C          61.0646   86.5628    9.1310 C.ar    1  UNL1        0.0288
      5 C          60.4650   86.0268    7.8649 C.ar    1  UNL1        0.0065
      6 C          59.5698   86.8960    7.0324 C.ar    1  UNL1        0.0005
      7 C          59.2743   88.3013    7.4660 C.ar    1  UNL1        0.0000
      8 C          59.8740   88.8373    8.7321 C.ar    1  UNL1        0.0002
      9 C          60.7691   87.9681    9.5646 C.ar    1  UNL1        0.0025
     10 C          60.2602   89.8866   12.4120 C.3     1  UNL1        0.0095
     11 C          61.4843   89.4964   11.6377 C.3     1  UNL1        0.0471
     12 C          62.6939   90.3832   11.6503 C.ar    1  UNL1        0.0101
     13 C          63.1297   91.0753   10.3928 C.ar    1  UNL1       -0.0000
     14 C          64.3393   91.9622   10.4053 C.ar    1  UNL1        0.0204
     15 C          65.1133   92.1570   11.6754 C.ar    1  UNL1        0.0998
     16 N          64.6775   91.4651   12.9328 N.ar    1  UNL1       -0.2328
     17 C          63.4679   90.5782   12.9203 C.ar    1  UNL1        0.1346
     18 CL         63.0323   89.8862   14.1779 Cl      1  UNL1       -0.0617
     19 C          63.1081   86.7771   12.4241 C.3     1  UNL1        0.0499
     20 C          63.2732   85.4095   13.0178 C.3     1  UNL1        0.0774
     21 N          63.3424   85.2417   14.5068 N.3     1  UNL1       -0.2700
     22 C          62.5309   84.1747   15.1799 C.3     1  UNL1        0.0897
     23 C          64.2231   86.1409   15.3227 C.3     1  UNL1        0.0897
@<TRIPOS>BOND
     1    11    10    1
     2    11    12    1
     3    12    13   ar
     4    13    14   ar
     5    14    15   ar
     6    15    16   ar
     7    16    17   ar
     8    17    18    1
     9    11     1    1
    10     1     2   ar
    11     2    19    1
    12    19    20    1
    13    20    21    1
    14    21    22    1
    15    21    23    1
    16     2     3   ar
    17     3     4   ar
    18     4     5   ar
    19     5     6   ar
    20     6     7   ar
    21     7     8   ar
    22     8     9   ar
    23    17    12   ar
    24     9     1   ar
    25     9     4   ar
@<TRIPOS>MOLECULE
*****
 23 25 0 0 0
SMALL
GASTEIGER

@<TRIPOS>ATOM
      1 C          63.6323   85.5125   13.1435 C.ar    1  UNL1       -0.0158
      2 C          63.2984   84.0777   12.8607 C.ar    1  UNL1        0.0050
      3 S          62.4326   84.0359   11.6365 S.2     1  UNL1       -0.0915
      4 C          62.2315   85.4448   11.1626 C.ar    1  UNL1        0.0288
      5 C          61.4690   86.0147   10.0034 C.ar    1  UNL1        0.0065
      6 C          61.4479   87.4971    9.7756 C.ar    1  UNL1        0.0005
      7 C          62.1893   88.4097   10.7069 C.ar    1  UNL1        0.0000
      8 C          62.9518   87.8398   11.8662 C.ar    1  UNL1        0.0002
      9 C          62.9729   86.3574   12.0940 C.ar    1  UNL1        0.0025
     10 C          65.7631   85.3211   14.6177 C.3     1  UNL1        0.0095
     11 C          64.4772   86.0143   14.2767 C.3     1  UNL1        0.0471
     12 C          64.0365   87.2092   15.0690 C.ar    1  UNL1        0.0101
     13 C          64.3485   88.5917   14.5775 C.ar    1  UNL1       -0.0000
     14 C          63.9077   89.7867   15.3698 C.ar    1  UNL1        0.0204
     15 C          63.1549   89.5992   16.6536 C.ar    1  UNL1        0.0998
     16 N          62.8429   88.2168   17.1451 N.ar    1  UNL1       -0.2328
     17 C          63.2837   87.0218   16.3528 C.ar    1  UNL1        0.1346
     18 CL         62.9716   85.6395   16.8444 Cl      1  UNL1       -0.0617
     19 C          63.7508   82.8928   13.6615 C.3     1  UNL1        0.0499
     20 C          62.7523   82.0876   14.4390 C.3     1  UNL1        0.0774
     21 N          61.9772   80.9970   13.7610 N.3     1  UNL1       -0.2700
     22 C          60.5515   80.7376   14.1488 C.3     1  UNL1        0.0897
     23 C          62.6277   80.1658   12.6952 C.3     1  UNL1        0.0897
@<TRIPOS>BOND
     1    11    10    1
     2    11    12    1
     3    12    13   ar
     4    13    14   ar
     5    14    15   ar
     6    15    16   ar
     7    16    17   ar
     8    17    18    1
     9    11     1    1
    10     1     2   ar
    11     2    19    1
    12    19    20    1
    13    20    21    1
    14    21    22    1
    15    21    23    1
    16     2     3   ar
    17     3     4   ar
    18     4     5   ar
    19     5     6   ar
    20     6     7   ar
    21     7     8   ar
    22     8     9   ar
    23    17    12   ar
    24     9     1   ar
    25     9     4   ar
@<TRIPOS>MOLECULE
*****
 23 25 0 0 0
SMALL
GASTEIGER

@<TRIPOS>ATOM
      1 C          63.3210   88.8282   12.4082 C.ar    1  UNL1       -0.0158
      2 C          63.8825   89.7419   13.4569 C.ar    1  UNL1        0.0050
      3 S          64.3509   88.8975   14.6047 S.2     1  UNL1       -0.0915
      4 C          64.0790   87.4619   14.2654 C.ar    1  UNL1        0.0288
      5 C          64.3287   86.1882   15.0172 C.ar    1  UNL1        0.0065
      6 C          63.9420   84.8716   14.4114 C.ar    1  UNL1        0.0005
      7 C          63.3055   84.8288   13.0538 C.ar    1  UNL1        0.0000
      8 C          63.0557   86.1025   12.3020 C.ar    1  UNL1        0.0002
      9 C          63.4425   87.4191   12.9078 C.ar    1  UNL1        0.0025
     10 C          63.0229   90.6201   10.5506 C.3     1  UNL1        0.0095
     11 C          62.7401   89.2496   11.0910 C.3     1  UNL1        0.0471
     12 C          61.8766   88.3006   10.3141 C.ar    1  UNL1        0.0101
     13 C          62.5051   87.2972    9.3931 C.ar    1  UNL1       -0.0000
     14 C          61.6415   86.3481    8.6161 C.ar    1  UNL1        0.0204
     15 C          60.1494   86.4025    8.7602 C.ar    1  UNL1        0.0998
     16 N          59.5210   87.4059    9.6812 N.ar    1  UNL1       -0.2328
     17 C          60.3845   88.3549   10.4581 C.ar    1  UNL1        0.1346
     18 CL         59.7559   89.3583   11.3791 Cl      1  UNL1       -0.0617
     19 C          63.9616   91.2375   13.3726 C.3     1  UNL1        0.0499
     20 C          65.2899   91.9090   13.1873 C.3     1  UNL1        0.0774
     21 N          65.8772   92.7290   14.2976 N.3     1  UNL1       -0.2700
     22 C          65.6872   92.3055   15.7240 C.3     1  UNL1        0.0897
     23 C          66.6544   93.9723   13.9815 C.3     1  UNL1        0.0897
@<TRIPOS>BOND
     1    11    10    1
     2    11    12    1
     3    12    13   ar
     4    13    14   ar
     5    14    15   ar
     6    15    16   ar
     7    16    17   ar
     8    17    18    1
     9    11     1    1
    10     1     2   ar
    11     2    19    1
    12    19    20    1
    13    20    21    1
    14    21    22    1
    15    21    23    1
    16     2     3   ar
    17     3     4   ar
    18     4     5   ar
    19     5     6   ar
    20     6     7   ar
    21     7     8   ar
    22     8     9   ar
    23    17    12   ar
    24     9     1   ar
    25     9     4   ar
@<TRIPOS>MOLECULE
*****
 23 25 0 0 0
SMALL
GASTEIGER

@<TRIPOS>ATOM
      1 C          63.4823   85.6748   12.8341 C.ar    1  UNL1       -0.0158
      2 C          63.0407   84.5256   11.9772 C.ar    1  UNL1        0.0050
      3 S          62.3463   85.0864   10.7717 S.2     1  UNL1       -0.0915
      4 C          62.3586   86.5822   10.8836 C.ar    1  UNL1        0.0288
      5 C          61.8213   87.6600    9.9895 C.ar    1  UNL1        0.0065
      6 C          61.9860   89.1015   10.3700 C.ar    1  UNL1        0.0005
      7 C          62.6881   89.4652   11.6447 C.ar    1  UNL1        0.0000
      8 C          63.2254   88.3873   12.5388 C.ar    1  UNL1        0.0002
      9 C          63.0607   86.9458   12.1583 C.ar    1  UNL1        0.0025
     10 C          65.5844   84.9570   14.1819 C.3     1  UNL1        0.0095
     11 C          64.2165   85.5712   14.1380 C.3     1  UNL1        0.0471
     12 C          63.5830   86.0818   15.3981 C.ar    1  UNL1        0.0101
     13 C          63.8191   87.4968   15.8363 C.ar    1  UNL1       -0.0000
     14 C          63.1857   88.0075   17.0964 C.ar    1  UNL1        0.0204
     15 C          62.3160   87.1030   17.9185 C.ar    1  UNL1        0.0998
     16 N          62.0799   85.6880   17.4804 N.ar    1  UNL1       -0.2328
     17 C          62.7134   85.1774   16.2202 C.ar    1  UNL1        0.1346
     18 CL         62.4772   83.7623   15.7822 Cl      1  UNL1       -0.0617
     19 C          63.2559   83.0710   12.2737 C.3     1  UNL1        0.0499
     20 C          62.0801   82.1462   12.3841 C.3     1  UNL1        0.0774
     21 N          62.0246   81.1321   13.4880 N.3     1  UNL1       -0.2700
     22 C          63.2861   80.4807   13.9722 C.3     1  UNL1        0.0897
     23 C          60.7076   80.7695   14.1077 C.3     1  UNL1        0.0897
@<TRIPOS>BOND
     1    11    10    1
     2    11    12    1
     3    12    13   ar
     4    13    14   ar
     5    14    15   ar
     6    15    16   ar
     7    16    17   ar
     8    17    18    1
     9    11     1    1
    10     1     2   ar
    11     2    19    1
    12    19    20    1
    13    20    21    1
    14    21    22    1
    15    21    23    1
    16     2     3   ar
    17     3     4   ar
    18     4     5   ar
    19     5     6   ar
    20     6     7   ar
    21     7     8   ar
    22     8     9   ar
    23    17    12   ar
    24     9     1   ar
    25     9     4   ar
@<TRIPOS>MOLECULE
*****
 23 25 0 0 0
SMALL
GASTEIGER

@<TRIPOS>ATOM
      1 C          63.3927   87.0105   12.8668 C.ar    1  UNL1       -0.0158
      2 C          63.5762   88.4800   13.1049 C.ar    1  UNL1        0.0050
      3 S          62.8821   89.2188   11.9993 S.2     1  UNL1       -0.0915
      4 C          62.2696   88.2059   11.0780 C.ar    1  UNL1        0.0288
      5 C          61.4653   88.3500    9.8201 C.ar    1  UNL1        0.0065
      6 C          60.9766   87.1293    9.0984 C.ar    1  UNL1        0.0005
      7 C          61.2922   85.7644    9.6346 C.ar    1  UNL1        0.0000
      8 C          62.0965   85.6203   10.8925 C.ar    1  UNL1        0.0002
      9 C          62.5852   86.8410   11.6142 C.ar    1  UNL1        0.0025
     10 C          64.7608   86.2272   14.9321 C.3     1  UNL1        0.0095
     11 C          63.9236   85.9045   13.7300 C.3     1  UNL1        0.0471
     12 C          63.6172   84.4758   13.3911 C.ar    1  UNL1        0.0101
     13 C          64.3706   83.7876   12.2916 C.ar    1  UNL1       -0.0000
     14 C          64.0643   82.3588   11.9527 C.ar    1  UNL1        0.0204
     15 C          63.0045   81.6182   12.7134 C.ar    1  UNL1        0.0998
     16 N          62.2512   82.3064   13.8128 N.ar    1  UNL1       -0.2328
     17 C          62.5575   83.7351   14.1517 C.ar    1  UNL1        0.1346
     18 CL         61.8041   84.4232   15.2512 Cl      1  UNL1       -0.0617
     19 C          64.3228   89.1017   14.2478 C.3     1  UNL1        0.0499
     20 C          64.0490   90.5241   14.6373 C.3     1  UNL1        0.0774
     21 N          65.0542   91.5934   14.3272 N.3     1  UNL1       -0.2700
     22 C          65.8803   92.1884   15.4289 C.3     1  UNL1        0.0897
     23 C          65.2334   92.0676   12.9155 C.3     1  UNL1        0.0897
@<TRIPOS>BOND
     1    11    10    1
     2    11    12    1
     3    12    13   ar
     4    13    14   ar
     5    14    15   ar
     6    15    16   ar
     7    16    17   ar
     8    17    18    1
     9    11     1    1
    10     1     2   ar
    11     2    19    1
    12    19    20    1
    13    20    21    1
    14    21    22    1
    15    21    23    1
    16     2     3   ar
    17     3     4   ar
    18     4     5   ar
    19     5     6   ar
    20     6     7   ar
    21     7     8   ar
    22     8     9   ar
    23    17    12   ar
    24     9     1   ar
    25     9     4   ar
@<TRIPOS>MOLECULE
*****
 23 25 0 0 0
SMALL
GASTEIGER

@<TRIPOS>ATOM
      1 C          64.9091   91.7896   12.5541 C.ar    1  UNL1       -0.0158
      2 C          63.9494   90.8340   13.1989 C.ar    1  UNL1        0.0050
      3 S          64.2509   90.7948   14.6678 S.2     1  UNL1       -0.0915
      4 C          65.3969   91.7262   14.9308 C.ar    1  UNL1        0.0288
      5 C          66.1226   92.0939   16.1910 C.ar    1  UNL1        0.0065
      6 C          67.2550   93.0764   16.1449 C.ar    1  UNL1        0.0005
      7 C          67.6618   93.6912   14.8386 C.ar    1  UNL1        0.0000
      8 C          66.9362   93.3235   13.5784 C.ar    1  UNL1        0.0002
      9 C          65.8037   92.3410   13.6245 C.ar    1  UNL1        0.0025
     10 C          63.7555   91.9313   10.2305 C.3     1  UNL1        0.0095
     11 C          64.9645   92.1335   11.0951 C.3     1  UNL1        0.0471
     12 C          66.2288   92.6795   10.5007 C.ar    1  UNL1        0.0101
     13 C          67.3480   91.7501   10.1347 C.ar    1  UNL1       -0.0000
     14 C          68.6123   92.2961    9.5403 C.ar    1  UNL1        0.0204
     15 C          68.7575   93.7715    9.3118 C.ar    1  UNL1        0.0998
     16 N          67.6384   94.7008    9.6778 N.ar    1  UNL1       -0.2328
     17 C          66.3741   94.1548   10.2722 C.ar    1  UNL1        0.1346
     18 CL         65.2550   95.0842   10.6381 Cl      1  UNL1       -0.0617
     19 C          62.8766   90.0545   12.4979 C.3     1  UNL1        0.0499
     20 C          63.0818   88.5994   12.1971 C.3     1  UNL1        0.0774
     21 N          62.0154   87.8236   11.4823 N.3     1  UNL1       -0.2700
     22 C          62.2159   86.3657   11.1916 C.3     1  UNL1        0.0897
     23 C          60.7485   88.5056   11.0583 C.3     1  UNL1        0.0897
@<TRIPOS>BOND
     1    11    10    1
     2    11    12    1
     3    12    13   ar
     4    13    14   ar
     5    14    15   ar
     6    15    16   ar
     7    16    17   ar
     8    17    18    1
     9    11     1    1
    10     1     2   ar
    11     2    19    1
    12    19    20    1
    13    20    21    1
    14    21    22    1
    15    21    23    1
    16     2     3   ar
    17     3     4   ar
    18     4     5   ar
    19     5     6   ar
    20     6     7   ar
    21     7     8   ar
    22     8     9   ar
    23    17    12   ar
    24     9     1   ar
    25     9     4   ar
@<TRIPOS>MOLECULE
*****
 23 25 0 0 0
SMALL
GASTEIGER

@<TRIPOS>ATOM
      1 C          64.9247   91.9088   12.4813 C.ar    1  UNL1       -0.0158
      2 C          64.0411   90.8609   13.0905 C.ar    1  UNL1        0.0050
      3 S          64.3901   90.7488   14.5451 S.2     1  UNL1       -0.0915
      4 C          65.4893   91.7275   14.8348 C.ar    1  UNL1        0.0288
      5 C          66.2320   92.0585   16.0953 C.ar    1  UNL1        0.0065
      6 C          67.3051   93.1064   16.0803 C.ar    1  UNL1        0.0005
      7 C          67.6355   93.8234   14.8048 C.ar    1  UNL1        0.0000
      8 C          66.8928   93.4924   13.5443 C.ar    1  UNL1        0.0002
      9 C          65.8197   92.4445   13.5594 C.ar    1  UNL1        0.0025
     10 C          63.9990   91.6748   10.0650 C.3     1  UNL1        0.0095
     11 C          64.9149   92.3447   11.0461 C.3     1  UNL1        0.0471
     12 C          65.8210   93.4503   10.5918 C.ar    1  UNL1        0.0101
     13 C          65.3561   94.8751   10.6555 C.ar    1  UNL1       -0.0000
     14 C          66.2621   95.9808   10.2013 C.ar    1  UNL1        0.0204
     15 C          67.6333   95.6618    9.6833 C.ar    1  UNL1        0.0998
     16 N          68.0982   94.2371    9.6195 N.ar    1  UNL1       -0.2328
     17 C          67.1921   93.1314   10.0738 C.ar    1  UNL1        0.1346
     18 CL         67.6572   91.7067   10.0100 Cl      1  UNL1       -0.0617
     19 C          62.9927   90.0647   12.3715 C.3     1  UNL1        0.0499
     20 C          63.1330   88.5762   12.2505 C.3     1  UNL1        0.0774
     21 N          62.0668   87.7759   11.5630 N.3     1  UNL1       -0.2700
     22 C          60.7825   88.4335   11.1529 C.3     1  UNL1        0.0897
     23 C          62.2849   86.3180   11.2857 C.3     1  UNL1        0.0897
@<TRIPOS>BOND
     1    11    10    1
     2    11    12    1
     3    12    13   ar
     4    13    14   ar
     5    14    15   ar
     6    15    16   ar
     7    16    17   ar
     8    17    18    1
     9    11     1    1
    10     1     2   ar
    11     2    19    1
    12    19    20    1
    13    20    21    1
    14    21    22    1
    15    21    23    1
    16     2     3   ar
    17     3     4   ar
    18     4     5   ar
    19     5     6   ar
    20     6     7   ar
    21     7     8   ar
    22     8     9   ar
    23    17    12   ar
    24     9     1   ar
    25     9     4   ar
@<TRIPOS>MOLECULE
*****
 23 25 0 0 0
SMALL
GASTEIGER

@<TRIPOS>ATOM
      1 C          63.5501   89.2369   12.6115 C.ar    1  UNL1       -0.0158
      2 C          63.3664   90.4444   11.7407 C.ar    1  UNL1        0.0050
      3 S          62.5855   90.0281   10.5297 S.2     1  UNL1       -0.0915
      4 C          62.2865   88.5632   10.6519 C.ar    1  UNL1        0.0288
      5 C          61.5485   87.6115    9.7578 C.ar    1  UNL1        0.0065
      6 C          61.4066   86.1708   10.1504 C.ar    1  UNL1        0.0005
      7 C          62.0028   85.6818   11.4370 C.ar    1  UNL1        0.0000
      8 C          62.7409   86.6336   12.3311 C.ar    1  UNL1        0.0002
      9 C          62.8827   88.0743   11.9385 C.ar    1  UNL1        0.0025
     10 C          65.2789   90.2614   14.2583 C.3     1  UNL1        0.0095
     11 C          64.2741   89.1987   13.9246 C.3     1  UNL1        0.0471
     12 C          63.9935   88.0980   14.9041 C.ar    1  UNL1        0.0101
     13 C          64.5045   86.7122   14.6418 C.ar    1  UNL1       -0.0000
     14 C          64.2238   85.6114   15.6213 C.ar    1  UNL1        0.0204
     15 C          63.4321   85.8963   16.8631 C.ar    1  UNL1        0.0998
     16 N          62.9211   87.2819   17.1254 N.ar    1  UNL1       -0.2328
     17 C          63.2018   88.3828   16.1459 C.ar    1  UNL1        0.1346
     18 CL         62.6907   89.7684   16.4083 Cl      1  UNL1       -0.0617
     19 C          63.8745   91.8258   12.0303 C.3     1  UNL1        0.0499
     20 C          64.7911   92.5069   11.0578 C.3     1  UNL1        0.0774
     21 N          66.1809   92.8857   11.4763 N.3     1  UNL1       -0.2700
     22 C          67.3472   92.5511   10.5944 C.3     1  UNL1        0.0897
     23 C          66.4043   93.5992   12.7767 C.3     1  UNL1        0.0897
@<TRIPOS>BOND
     1    11    10    1
     2    11    12    1
     3    12    13   ar
     4    13    14   ar
     5    14    15   ar
     6    15    16   ar
     7    16    17   ar
     8    17    18    1
     9    11     1    1
    10     1     2   ar
    11     2    19    1
    12    19    20    1
    13    20    21    1
    14    21    22    1
    15    21    23    1
    16     2     3   ar
    17     3     4   ar
    18     4     5   ar
    19     5     6   ar
    20     6     7   ar
    21     7     8   ar
    22     8     9   ar
    23    17    12   ar
    24     9     1   ar
    25     9     4   ar
@<TRIPOS>MOLECULE
*****
 23 25 0 0 0
SMALL
GASTEIGER

@<TRIPOS>ATOM
      1 C          63.5045   86.9792   13.0424 C.ar    1  UNL1       -0.0158
      2 C          62.6246   86.9857   11.8276 C.ar    1  UNL1        0.0050
      3 S          62.4288   88.4114   11.4047 S.2     1  UNL1       -0.0915
      4 C          63.1876   89.2861   12.3581 C.ar    1  UNL1        0.0288
      5 C          63.3591   90.7743   12.4354 C.ar    1  UNL1        0.0065
      6 C          64.1954   91.3772   13.5249 C.ar    1  UNL1        0.0005
      7 C          64.8602   90.4921   14.5371 C.ar    1  UNL1        0.0000
      8 C          64.6887   89.0040   14.4598 C.ar    1  UNL1        0.0002
      9 C          63.8524   88.4010   13.3703 C.ar    1  UNL1        0.0025
     10 C          64.7362   85.9188   15.0694 C.3     1  UNL1        0.0095
     11 C          63.9569   85.7643   13.7969 C.3     1  UNL1        0.0471
     12 C          63.6302   84.3950   13.2792 C.ar    1  UNL1        0.0101
     13 C          64.3806   83.8381   12.1058 C.ar    1  UNL1       -0.0000
     14 C          64.0539   82.4687   11.5879 C.ar    1  UNL1        0.0204
     15 C          62.9767   81.6563   12.2435 C.ar    1  UNL1        0.0998
     16 N          62.2264   82.2132   13.4169 N.ar    1  UNL1       -0.2328
     17 C          62.5531   83.5825   13.9347 C.ar    1  UNL1        0.1346
     18 CL         61.8027   84.1393   15.1081 Cl      1  UNL1       -0.0617
     19 C          62.0428   85.7783   11.1539 C.3     1  UNL1        0.0499
     20 C          61.0557   85.9455   10.0370 C.3     1  UNL1        0.0774
     21 N          61.4959   85.7675    8.6141 N.3     1  UNL1       -0.2700
     22 C          62.9242   85.4265    8.3080 C.3     1  UNL1        0.0897
     23 C          60.5079   85.9307    7.4974 C.3     1  UNL1        0.0897
@<TRIPOS>BOND
     1    11    10    1
     2    11    12    1
     3    12    13   ar
     4    13    14   ar
     5    14    15   ar
     6    15    16   ar
     7    16    17   ar
     8    17    18    1
     9    11     1    1
    10     1     2   ar
    11     2    19    1
    12    19    20    1
    13    20    21    1
    14    21    22    1
    15    21    23    1
    16     2     3   ar
    17     3     4   ar
    18     4     5   ar
    19     5     6   ar
    20     6     7   ar
    21     7     8   ar
    22     8     9   ar
    23    17    12   ar
    24     9     1   ar
    25     9     4   ar
