@<TRIPOS>MOLECULE
*****
 23 25 0 0 0
SMALL
GASTEIGER

@<TRIPOS>ATOM
      1 C          63.6738   86.3056   14.1137 C.3     1  UNL1        0.2337
      2 N          63.5469   84.8130   14.1911 N.ar    1  UNL1       -0.2923
      3 C          63.9354   83.8264   15.2520 C.ar    1  UNL1        0.1796
      4 N          63.5604   82.4563   14.7705 N.ar    1  UNL1       -0.2226
      5 C          62.9400   82.5960   13.4119 C.ar    1  UNL1        0.1148
      6 C          62.9317   84.0527   13.0538 C.ar    1  UNL1        0.0770
      7 C          62.4434   84.7849   11.8392 C.3     1  UNL1        0.1410
      8 N          62.5703   86.2775   11.7617 N.3     1  UNL1       -0.1473
      9 S          63.1855   87.0378   12.8989 S.O2    1  UNL1        0.0628
     10 O          62.8732   88.1708   11.9667 O.2     1  UNL1       -0.1555
     11 O          63.6923   88.1917   13.7125 O.2     1  UNL1       -0.1555
     12 C          64.2890   87.0661   15.2509 C.3     1  UNL1        0.0490
     13 C          62.9205   86.3584   17.3428 C.3     1  UNL1        0.0001
     14 C          63.4579   87.4328   16.4445 C.3     1  UNL1        0.0037
     15 C          63.1643   88.8738   16.7400 C.3     1  UNL1        0.0001
     16 C          62.0820   87.0096   10.5470 C.3     1  UNL1        0.1222
     17 C          61.9258   86.2816    9.2449 C.ar    1  UNL1       -0.0044
     18 C          63.0970   85.5647    8.6411 C.ar    1  UNL1       -0.0020
     19 C          62.9408   84.8366    7.3390 C.ar    1  UNL1        0.0111
     20 C          61.6133   84.8254    6.6406 C.ar    1  UNL1        0.0577
     21 CL         61.4571   84.0973    5.3385 Cl      1  UNL1       -0.0822
     22 C          60.4422   85.5422    7.2443 C.ar    1  UNL1        0.0111
     23 C          60.5984   86.2703    8.5465 C.ar    1  UNL1       -0.0020
@<TRIPOS>BOND
     1    13    14    1
     2    14    15    1
     3    14    12    1
     4    12     1    1
     5     1     2    1
     6     2     3   ar
     7     3     4   ar
     8     4     5   ar
     9     5     6   ar
    10     6     7    1
    11     7     8    1
    12     8    16    1
    13    16    17    1
    14    17    18   ar
    15    18    19   ar
    16    19    20   ar
    17    20    21    1
    18    20    22   ar
    19    22    23   ar
    20     8     9    1
    21     9    10    2
    22     9    11    2
    23     9     1    1
    24     6     2   ar
    25    23    17   ar
@<TRIPOS>MOLECULE
*****
 23 25 0 0 0
SMALL
GASTEIGER

@<TRIPOS>ATOM
      1 C          61.7782   86.6571   10.6001 C.3     1  UNL1        0.2337
      2 N          60.9095   87.2571    9.5347 N.ar    1  UNL1       -0.2923
      3 C          60.1663   86.6464    8.3838 C.ar    1  UNL1        0.1796
      4 N          59.4612   87.7485    7.6502 N.ar    1  UNL1       -0.2226
      5 C          59.7686   89.0404    8.3477 C.ar    1  UNL1        0.1148
      6 C          60.6637   88.7367    9.5125 C.ar    1  UNL1        0.0770
      7 C          61.2868   89.6162   10.5556 C.3     1  UNL1        0.1410
      8 N          62.1556   89.0162   11.6210 N.3     1  UNL1       -0.1473
      9 S          62.4013   87.5367   11.6433 S.O2    1  UNL1        0.0628
     10 O          63.2069   87.9526   12.8384 O.2     1  UNL1       -0.1555
     11 O          62.9268   86.2015   12.0806 O.2     1  UNL1       -0.1555
     12 C          62.0240   85.1775   10.6225 C.3     1  UNL1        0.0490
     13 C          63.8764   83.4150   10.1622 C.3     1  UNL1        0.0001
     14 C          63.0409   84.5722    9.7008 C.3     1  UNL1        0.0037
     15 C          63.2223   85.1239    8.3178 C.3     1  UNL1        0.0001
     16 C          62.7786   89.8959   12.6642 C.3     1  UNL1        0.1222
     17 C          63.7810   90.9379   12.2652 C.ar    1  UNL1       -0.0044
     18 C          63.8154   91.4440   10.8535 C.ar    1  UNL1       -0.0020
     19 C          64.8178   92.4861   10.4545 C.ar    1  UNL1        0.0111
     20 C          65.7860   93.0221   11.4672 C.ar    1  UNL1        0.0577
     21 CL         66.7884   94.0641   11.0682 Cl      1  UNL1       -0.0822
     22 C          65.7516   92.5160   12.8788 C.ar    1  UNL1        0.0111
     23 C          64.7491   91.4739   13.2778 C.ar    1  UNL1       -0.0020
@<TRIPOS>BOND
     1    13    14    1
     2    14    15    1
     3    14    12    1
     4    12     1    1
     5     1     2    1
     6     2     3   ar
     7     3     4   ar
     8     4     5   ar
     9     5     6   ar
    10     6     7    1
    11     7     8    1
    12     8    16    1
    13    16    17    1
    14    17    18   ar
    15    18    19   ar
    16    19    20   ar
    17    20    21    1
    18    20    22   ar
    19    22    23   ar
    20     8     9    1
    21     9    10    2
    22     9    11    2
    23     9     1    1
    24     6     2   ar
    25    23    17   ar
@<TRIPOS>MOLECULE
*****
 23 25 0 0 0
SMALL
GASTEIGER

@<TRIPOS>ATOM
      1 C          63.7962   90.8853   13.7975 C.3     1  UNL1        0.2337
      2 N          63.0006   90.5011   12.5853 N.ar    1  UNL1       -0.2923
      3 C          61.7751   89.6528   12.4165 C.ar    1  UNL1        0.1796
      4 N          61.4277   89.6254   10.9576 N.ar    1  UNL1       -0.2226
      5 C          62.4385   90.4567   10.2246 C.ar    1  UNL1        0.1148
      6 C          63.4107   90.9979   11.2306 C.ar    1  UNL1        0.0770
      7 C          64.6162   91.8790   11.0882 C.3     1  UNL1        0.1410
      8 N          65.4118   92.2632   12.3004 N.3     1  UNL1       -0.1473
      9 S          65.0018   91.7664   13.6550 S.O2    1  UNL1        0.0628
     10 O          66.2109   92.5721   14.0280 O.2     1  UNL1       -0.1555
     11 O          65.0117   91.5493   15.1392 O.2     1  UNL1       -0.1555
     12 C          63.3863   90.3884   15.1522 C.3     1  UNL1        0.0490
     13 C          63.1888   88.4512   16.8720 C.3     1  UNL1        0.0001
     14 C          63.6511   88.9640   15.5404 C.3     1  UNL1        0.0037
     15 C          64.3782   88.0523   14.5969 C.3     1  UNL1        0.0001
     16 C          66.6174   93.1443   12.1579 C.3     1  UNL1        0.1222
     17 C          66.7339   94.0719   10.9849 C.ar    1  UNL1       -0.0044
     18 C          66.1592   95.4554   11.0627 C.ar    1  UNL1       -0.0020
     19 C          66.2757   96.3830    9.8897 C.ar    1  UNL1        0.0111
     20 C          66.9669   95.9272    8.6388 C.ar    1  UNL1        0.0577
     21 CL         67.0834   96.8548    7.4659 Cl      1  UNL1       -0.0822
     22 C          67.5415   94.5439    8.5610 C.ar    1  UNL1        0.0111
     23 C          67.4250   93.6162    9.7341 C.ar    1  UNL1       -0.0020
@<TRIPOS>BOND
     1    13    14    1
     2    14    15    1
     3    14    12    1
     4    12     1    1
     5     1     2    1
     6     2     3   ar
     7     3     4   ar
     8     4     5   ar
     9     5     6   ar
    10     6     7    1
    11     7     8    1
    12     8    16    1
    13    16    17    1
    14    17    18   ar
    15    18    19   ar
    16    19    20   ar
    17    20    21    1
    18    20    22   ar
    19    22    23   ar
    20     8     9    1
    21     9    10    2
    22     9    11    2
    23     9     1    1
    24     6     2   ar
    25    23    17   ar
@<TRIPOS>MOLECULE
*****
 23 25 0 0 0
SMALL
GASTEIGER

@<TRIPOS>ATOM
      1 C          63.2629   89.4672   12.6691 C.3     1  UNL1        0.2337
      2 N          62.4559   89.1394   11.4479 N.ar    1  UNL1       -0.2923
      3 C          61.8075   90.0074   10.4105 C.ar    1  UNL1        0.1796
      4 N          61.1297   89.1128    9.4155 N.ar    1  UNL1       -0.2226
      5 C          61.3591   87.6919    9.8378 C.ar    1  UNL1        0.1148
      6 C          62.1787   87.7083   11.0940 C.ar    1  UNL1        0.0770
      7 C          62.7086   86.6051   11.9612 C.3     1  UNL1        0.1410
      8 N          63.5155   86.9329   13.1824 N.3     1  UNL1       -0.1473
      9 S          63.7927   88.3638   13.5363 S.O2    1  UNL1        0.0628
     10 O          64.5047   87.6745   14.6624 O.2     1  UNL1       -0.1555
     11 O          64.3171   89.5556   14.2813 O.2     1  UNL1       -0.1555
     12 C          63.5401   90.8982   13.0231 C.3     1  UNL1        0.0490
     13 C          65.8145   92.1539   13.0299 C.3     1  UNL1        0.0001
     14 C          64.6062   91.6588   12.2917 C.3     1  UNL1        0.0037
     15 C          64.4640   91.9242   10.8222 C.3     1  UNL1        0.0001
     16 C          64.0453   85.8295   14.0497 C.3     1  UNL1        0.1222
     17 C          63.6299   84.4108   13.7956 C.ar    1  UNL1       -0.0044
     18 C          64.3235   83.6040   12.7382 C.ar    1  UNL1       -0.0020
     19 C          63.9081   82.1853   12.4841 C.ar    1  UNL1        0.0111
     20 C          62.7990   81.5732   13.2875 C.ar    1  UNL1        0.0577
     21 CL         62.3836   80.1545   13.0335 Cl      1  UNL1       -0.0822
     22 C          62.1055   82.3799   14.3449 C.ar    1  UNL1        0.0111
     23 C          62.5209   83.7987   14.5990 C.ar    1  UNL1       -0.0020
@<TRIPOS>BOND
     1    13    14    1
     2    14    15    1
     3    14    12    1
     4    12     1    1
     5     1     2    1
     6     2     3   ar
     7     3     4   ar
     8     4     5   ar
     9     5     6   ar
    10     6     7    1
    11     7     8    1
    12     8    16    1
    13    16    17    1
    14    17    18   ar
    15    18    19   ar
    16    19    20   ar
    17    20    21    1
    18    20    22   ar
    19    22    23   ar
    20     8     9    1
    21     9    10    2
    22     9    11    2
    23     9     1    1
    24     6     2   ar
    25    23    17   ar
@<TRIPOS>MOLECULE
*****
 23 25 0 0 0
SMALL
GASTEIGER

@<TRIPOS>ATOM
      1 C          62.7673   86.1592   11.8387 C.3     1  UNL1        0.2337
      2 N          63.5182   85.5496   12.9852 N.ar    1  UNL1       -0.2923
      3 C          63.8247   84.1247   13.3399 C.ar    1  UNL1        0.1796
      4 N          64.6180   84.1243   14.6130 N.ar    1  UNL1       -0.2226
      5 C          64.8017   85.5490   15.0451 C.ar    1  UNL1        0.1148
      6 C          64.1221   86.4298   14.0390 C.ar    1  UNL1        0.0770
      7 C          63.9750   87.9197   13.9464 C.3     1  UNL1        0.1410
      8 N          63.2240   88.5293   12.7999 N.3     1  UNL1       -0.1473
      9 S          62.6202   87.6491   11.7461 S.O2    1  UNL1        0.0628
     10 O          62.2144   88.9958   11.2245 O.2     1  UNL1       -0.1555
     11 O          61.8754   87.2365   10.5111 O.2     1  UNL1       -0.1555
     12 C          62.1634   85.2790   10.7848 C.3     1  UNL1        0.0490
     13 C          63.8500   83.4435   10.0529 C.3     1  UNL1        0.0001
     14 C          63.0362   84.6621    9.7325 C.3     1  UNL1        0.0037
     15 C          63.0953   85.2637    8.3597 C.3     1  UNL1        0.0001
     16 C          63.0770   90.0193   12.7073 C.3     1  UNL1        0.1222
     17 C          64.1465   90.9142   13.2597 C.ar    1  UNL1       -0.0044
     18 C          64.9099   91.8245   12.3439 C.ar    1  UNL1       -0.0020
     19 C          65.9794   92.7194   12.8964 C.ar    1  UNL1        0.0111
     20 C          66.2856   92.7040   14.3648 C.ar    1  UNL1        0.0577
     21 CL         67.3551   93.5989   14.9172 Cl      1  UNL1       -0.0822
     22 C          65.5223   91.7938   15.2806 C.ar    1  UNL1        0.0111
     23 C          64.4527   90.8989   14.7281 C.ar    1  UNL1       -0.0020
@<TRIPOS>BOND
     1    13    14    1
     2    14    15    1
     3    14    12    1
     4    12     1    1
     5     1     2    1
     6     2     3   ar
     7     3     4   ar
     8     4     5   ar
     9     5     6   ar
    10     6     7    1
    11     7     8    1
    12     8    16    1
    13    16    17    1
    14    17    18   ar
    15    18    19   ar
    16    19    20   ar
    17    20    21    1
    18    20    22   ar
    19    22    23   ar
    20     8     9    1
    21     9    10    2
    22     9    11    2
    23     9     1    1
    24     6     2   ar
    25    23    17   ar
@<TRIPOS>MOLECULE
*****
 23 25 0 0 0
SMALL
GASTEIGER

@<TRIPOS>ATOM
      1 C          62.1521   88.8312   11.6622 C.3     1  UNL1        0.2337
      2 N          61.2689   88.5411   10.4850 N.ar    1  UNL1       -0.2923
      3 C          60.4816   89.4375    9.5759 C.ar    1  UNL1        0.1796
      4 N          59.7823   88.5756    8.5669 N.ar    1  UNL1       -0.2226
      5 C          60.1374   87.1464    8.8524 C.ar    1  UNL1        0.1148
      6 C          61.0562   87.1251   10.0379 C.ar    1  UNL1        0.0770
      7 C          61.7267   85.9993   10.7680 C.3     1  UNL1        0.1410
      8 N          62.6098   86.2895   11.9452 N.3     1  UNL1       -0.1473
      9 S          62.8225   87.7053   12.3923 S.O2    1  UNL1        0.0628
     10 O          63.6690   86.9843   13.3992 O.2     1  UNL1       -0.1555
     11 O          63.3292   88.8709   13.1891 O.2     1  UNL1       -0.1555
     12 C          62.3648   90.2471   12.1094 C.3     1  UNL1        0.0490
     13 C          64.5468   91.6549   12.1919 C.3     1  UNL1        0.0001
     14 C          63.3833   91.1062   11.4205 C.3     1  UNL1        0.0037
     15 C          63.2383   91.4166    9.9601 C.3     1  UNL1        0.0001
     16 C          63.2803   85.1636   12.6754 C.3     1  UNL1        0.1222
     17 C          63.2047   83.7674   12.1324 C.ar    1  UNL1       -0.0044
     18 C          62.4477   82.7111   12.8816 C.ar    1  UNL1       -0.0020
     19 C          62.3722   81.3149   12.3387 C.ar    1  UNL1        0.0111
     20 C          63.0537   80.9749   11.0463 C.ar    1  UNL1        0.0577
     21 CL         62.9782   79.5786   10.5034 Cl      1  UNL1       -0.0822
     22 C          63.8107   82.0310   10.2971 C.ar    1  UNL1        0.0111
     23 C          63.8862   83.4273   10.8401 C.ar    1  UNL1       -0.0020
@<TRIPOS>BOND
     1    13    14    1
     2    14    15    1
     3    14    12    1
     4    12     1    1
     5     1     2    1
     6     2     3   ar
     7     3     4   ar
     8     4     5   ar
     9     5     6   ar
    10     6     7    1
    11     7     8    1
    12     8    16    1
    13    16    17    1
    14    17    18   ar
    15    18    19   ar
    16    19    20   ar
    17    20    21    1
    18    20    22   ar
    19    22    23   ar
    20     8     9    1
    21     9    10    2
    22     9    11    2
    23     9     1    1
    24     6     2   ar
    25    23    17   ar
@<TRIPOS>MOLECULE
*****
 23 25 0 0 0
SMALL
GASTEIGER

@<TRIPOS>ATOM
      1 C          61.1889   88.3154   10.7711 C.3     1  UNL1        0.2337
      2 N          60.5381   87.7447    9.5461 N.ar    1  UNL1       -0.2923
      3 C          59.5462   88.3173    8.5775 C.ar    1  UNL1        0.1796
      4 N          59.2561   87.2736    7.5399 N.ar    1  UNL1       -0.2226
      5 C          60.0687   86.0560    7.8672 C.ar    1  UNL1        0.1148
      6 C          60.8610   86.3472    9.1072 C.ar    1  UNL1        0.0770
      7 C          61.8349   85.5203    9.8933 C.3     1  UNL1        0.1410
      8 N          62.4857   86.0910   11.1183 N.3     1  UNL1       -0.1473
      9 S          62.1628   87.4884   11.5572 S.O2    1  UNL1        0.0628
     10 O          63.1426   87.1001   12.6246 O.2     1  UNL1       -0.1555
     11 O          62.1801   88.7512   12.3669 O.2     1  UNL1       -0.1555
     12 C          60.8660   89.7129   11.2101 C.3     1  UNL1        0.0490
     13 C          58.8786   91.3616   11.4964 C.3     1  UNL1        0.0001
     14 C          59.5106   90.0289   11.7697 C.3     1  UNL1        0.0037
     15 C          58.7874   89.0125   12.6025 C.3     1  UNL1        0.0001
     16 C          63.4596   85.2641   11.9044 C.3     1  UNL1        0.1222
     17 C          63.1076   83.8587   12.2931 C.ar    1  UNL1       -0.0044
     18 C          63.3084   82.7378   11.3167 C.ar    1  UNL1       -0.0020
     19 C          62.9564   81.3325   11.7053 C.ar    1  UNL1        0.0111
     20 C          62.4037   81.0479   13.0705 C.ar    1  UNL1        0.0577
     21 CL         62.0518   79.6426   13.4591 Cl      1  UNL1       -0.0822
     22 C          62.2030   82.1687   14.0469 C.ar    1  UNL1        0.0111
     23 C          62.5549   83.5742   13.6582 C.ar    1  UNL1       -0.0020
@<TRIPOS>BOND
     1    13    14    1
     2    14    15    1
     3    14    12    1
     4    12     1    1
     5     1     2    1
     6     2     3   ar
     7     3     4   ar
     8     4     5   ar
     9     5     6   ar
    10     6     7    1
    11     7     8    1
    12     8    16    1
    13    16    17    1
    14    17    18   ar
    15    18    19   ar
    16    19    20   ar
    17    20    21    1
    18    20    22   ar
    19    22    23   ar
    20     8     9    1
    21     9    10    2
    22     9    11    2
    23     9     1    1
    24     6     2   ar
    25    23    17   ar
@<TRIPOS>MOLECULE
*****
 23 25 0 0 0
SMALL
GASTEIGER

@<TRIPOS>ATOM
      1 C          62.7351   85.3597   11.9945 C.3     1  UNL1        0.2337
      2 N          63.5748   85.2349   13.2312 N.ar    1  UNL1       -0.2923
      3 C          64.0920   84.0405   13.9768 C.ar    1  UNL1        0.1796
      4 N          64.8835   84.5344   15.1513 N.ar    1  UNL1       -0.2226
      5 C          64.8554   86.0341   15.1316 C.ar    1  UNL1        0.1148
      6 C          64.0466   86.4670   13.9449 C.ar    1  UNL1        0.0770
      7 C          63.6787   87.8239   13.4220 C.3     1  UNL1        0.1410
      8 N          62.8390   87.9487   12.1853 N.3     1  UNL1       -0.1473
      9 S          62.3672   86.7167   11.4716 S.O2    1  UNL1        0.0628
     10 O          61.7625   87.7731   10.5950 O.2     1  UNL1       -0.1555
     11 O          61.6854   85.8514   10.4534 O.2     1  UNL1       -0.1555
     12 C          62.2633   84.1276   11.2807 C.3     1  UNL1        0.0490
     13 C          64.4529   83.1820   10.2508 C.3     1  UNL1        0.0001
     14 C          63.2056   82.9818   11.0595 C.3     1  UNL1        0.0037
     15 C          62.9006   81.6357   11.6471 C.3     1  UNL1        0.0001
     16 C          62.4711   89.3057   11.6624 C.3     1  UNL1        0.1222
     17 C          63.4394   90.4446   11.7856 C.ar    1  UNL1       -0.0044
     18 C          64.0778   90.7466   13.1090 C.ar    1  UNL1       -0.0020
     19 C          65.0461   91.8856   13.2322 C.ar    1  UNL1        0.0111
     20 C          65.3760   92.7226   12.0319 C.ar    1  UNL1        0.0577
     21 CL         66.3443   93.8615   12.1551 Cl      1  UNL1       -0.0822
     22 C          64.7377   92.4207   10.7086 C.ar    1  UNL1        0.0111
     23 C          63.7694   91.2816   10.5854 C.ar    1  UNL1       -0.0020
@<TRIPOS>BOND
     1    13    14    1
     2    14    15    1
     3    14    12    1
     4    12     1    1
     5     1     2    1
     6     2     3   ar
     7     3     4   ar
     8     4     5   ar
     9     5     6   ar
    10     6     7    1
    11     7     8    1
    12     8    16    1
    13    16    17    1
    14    17    18   ar
    15    18    19   ar
    16    19    20   ar
    17    20    21    1
    18    20    22   ar
    19    22    23   ar
    20     8     9    1
    21     9    10    2
    22     9    11    2
    23     9     1    1
    24     6     2   ar
    25    23    17   ar
@<TRIPOS>MOLECULE
*****
 23 25 0 0 0
SMALL
GASTEIGER

@<TRIPOS>ATOM
      1 C          65.2229   92.5926   11.9226 C.3     1  UNL1        0.2337
      2 N          65.8772   92.7813   13.2591 N.ar    1  UNL1       -0.2923
      3 C          66.8407   93.8121   13.7682 C.ar    1  UNL1        0.1796
      4 N          67.1507   93.4895   15.1999 N.ar    1  UNL1       -0.2226
      5 C          66.3789   92.2594   15.5756 C.ar    1  UNL1        0.1148
      6 C          65.5918   91.8217   14.3761 C.ar    1  UNL1        0.0770
      7 C          64.6521   90.6733   14.1566 C.3     1  UNL1        0.1410
      8 N          63.9977   90.4846   12.8201 N.3     1  UNL1       -0.1473
      9 S          64.2831   91.4441   11.7032 S.O2    1  UNL1        0.0628
     10 O          63.3272   90.5172   11.0124 O.2     1  UNL1       -0.1555
     11 O          64.2365   92.0819   10.3462 O.2     1  UNL1       -0.1555
     12 C          65.5082   93.5521   10.8055 C.3     1  UNL1        0.0490
     13 C          67.7156   92.3612   10.1281 C.3     1  UNL1        0.0001
     14 C          66.8755   93.6023   10.1908 C.3     1  UNL1        0.0037
     15 C          67.4028   94.8935    9.6386 C.3     1  UNL1        0.0001
     16 C          63.0580   89.3362   12.6007 C.3     1  UNL1        0.1222
     17 C          63.4210   87.9659   13.0912 C.ar    1  UNL1       -0.0044
     18 C          62.9927   86.7544   12.3173 C.ar    1  UNL1       -0.0020
     19 C          63.3557   85.3841   12.8078 C.ar    1  UNL1        0.0111
     20 C          64.1470   85.2253   14.0722 C.ar    1  UNL1        0.0577
     21 CL         64.5100   83.8551   14.5626 Cl      1  UNL1       -0.0822
     22 C          64.5753   86.4367   14.8460 C.ar    1  UNL1        0.0111
     23 C          64.2123   87.8071   14.3555 C.ar    1  UNL1       -0.0020
@<TRIPOS>BOND
     1    13    14    1
     2    14    15    1
     3    14    12    1
     4    12     1    1
     5     1     2    1
     6     2     3   ar
     7     3     4   ar
     8     4     5   ar
     9     5     6   ar
    10     6     7    1
    11     7     8    1
    12     8    16    1
    13    16    17    1
    14    17    18   ar
    15    18    19   ar
    16    19    20   ar
    17    20    21    1
    18    20    22   ar
    19    22    23   ar
    20     8     9    1
    21     9    10    2
    22     9    11    2
    23     9     1    1
    24     6     2   ar
    25    23    17   ar
