@<TRIPOS>MOLECULE
*****
 27 29 0 0 0
SMALL
GASTEIGER

@<TRIPOS>ATOM
      1 C          63.5623   83.8423   11.8196 C.ar    1  UNL1        0.0288
      2 C          62.8110   85.0718   12.2367 C.ar    1  UNL1        0.0147
      3 C          62.3107   86.0329   11.1995 C.ar    1  UNL1        0.0482
      4 C          62.5616   85.7645    9.7451 C.ar    1  UNL1        0.0177
      5 C          63.3128   84.5350    9.3280 C.ar    1  UNL1        0.0376
      6 C          63.8132   83.5739   10.3653 C.ar    1  UNL1        0.1310
      7 O          64.5644   82.3444    9.9482 O.3     1  UNL1       -0.5058
      8 H          64.7211   82.1767    9.0398 H       1  UNL1        0.2922
      9 N          61.5595   87.2624   11.6165 N.pl3   1  UNL1       -0.3125
     10 H          60.7165   87.1778   12.1180 H       1  UNL1        0.1522
     11 C          62.0927   88.6209   11.2696 C.ar    1  UNL1        0.0513
     12 C          61.6644   89.2925    9.9986 C.ar    1  UNL1        0.0353
     13 C          62.1976   90.6509    9.6517 C.ar    1  UNL1        0.1001
     14 N          63.1591   91.3377   10.5758 N.ar    1  UNL1       -0.2437
     15 C          63.5873   90.6661   11.8468 C.ar    1  UNL1        0.0833
     16 C          64.5488   91.3529   12.7709 C.ar    1  UNL1        0.0305
     17 C          64.9770   90.6812   14.0419 C.ar    1  UNL1        0.0592
     18 CL         65.9384   91.3680   14.9660 Cl      1  UNL1       -0.0822
     19 C          64.4438   89.3228   14.3888 C.ar    1  UNL1        0.0115
     20 C          63.4824   88.6360   13.4647 C.ar    1  UNL1        0.0036
     21 C          63.0541   89.3077   12.1937 C.ar    1  UNL1        0.0312
     22 C          64.0626   82.8811   12.8569 C.3     1  UNL1        0.1022
     23 N          63.2917   82.6810   14.1279 N.3     1  UNL1       -0.2689
     24 C          62.2730   80.4459   13.2812 C.3     1  UNL1        0.0188
     25 C          62.2228   81.6311   14.1994 C.3     1  UNL1        0.0724
     26 C          63.5896   83.5309   15.3275 C.3     1  UNL1        0.0724
     27 C          62.5732   84.5191   15.8177 C.3     1  UNL1        0.0188
@<TRIPOS>BOND
     1    24    25    1
     2    25    23    1
     3    23    26    1
     4    26    27    1
     5    23    22    1
     6    22     1    1
     7     1     2   ar
     8     2     3   ar
     9     3     9    1
    10     9    11    1
    11    11    12   ar
    12    12    13   ar
    13    13    14   ar
    14    14    15   ar
    15    15    16   ar
    16    16    17   ar
    17    17    18    1
    18    17    19   ar
    19    19    20   ar
    20    20    21   ar
    21     3     4   ar
    22     4     5   ar
    23     5     6   ar
    24     6     7    1
    25     6     1   ar
    26    21    11   ar
    27    21    15   ar
    28     9    10    1
    29     7     8    1
@<TRIPOS>MOLECULE
*****
 27 29 0 0 0
SMALL
GASTEIGER

@<TRIPOS>ATOM
      1 C          64.1578   90.1063   13.1047 C.ar    1  UNL1        0.0288
      2 C          63.3579   88.8608   12.8619 C.ar    1  UNL1        0.0147
      3 C          62.4547   88.7705   11.6678 C.ar    1  UNL1        0.0482
      4 C          62.3513   89.9256   10.7165 C.ar    1  UNL1        0.0177
      5 C          63.1512   91.1711   10.9593 C.ar    1  UNL1        0.0376
      6 C          64.0545   91.2614   12.1535 C.ar    1  UNL1        0.1310
      7 O          64.8544   92.5069   12.3964 O.3     1  UNL1       -0.5058
      8 H          64.7898   93.2285   11.8021 H       1  UNL1        0.2922
      9 N          61.6548   87.5250   11.4249 N.pl3   1  UNL1       -0.3125
     10 H          60.7456   87.4442   11.7938 H       1  UNL1        0.1522
     11 C          62.2402   86.4027   10.6201 C.ar    1  UNL1        0.0513
     12 C          62.3794   86.5394    9.1329 C.ar    1  UNL1        0.0353
     13 C          62.9648   85.4171    8.3281 C.ar    1  UNL1        0.1001
     14 N          63.4111   84.1581    9.0106 N.ar    1  UNL1       -0.2437
     15 C          63.2719   84.0213   10.4978 C.ar    1  UNL1        0.0833
     16 C          63.7181   82.7623   11.1802 C.ar    1  UNL1        0.0305
     17 C          63.5789   82.6256   12.6675 C.ar    1  UNL1        0.0592
     18 CL         64.0251   81.3666   13.3499 Cl      1  UNL1       -0.0822
     19 C          62.9935   83.7479   13.4723 C.ar    1  UNL1        0.0115
     20 C          62.5472   85.0070   12.7899 C.ar    1  UNL1        0.0036
     21 C          62.6865   85.1436   11.3025 C.ar    1  UNL1        0.0312
     22 C          65.0611   90.1966   14.2989 C.3     1  UNL1        0.1022
     23 N          64.7230   91.1262   15.4265 N.3     1  UNL1       -0.2689
     24 C          63.1493   89.4268   16.6034 C.3     1  UNL1        0.0188
     25 C          63.5381   90.8438   16.3017 C.3     1  UNL1        0.0724
     26 C          65.5699   92.3383   15.6788 C.3     1  UNL1        0.0724
     27 C          67.0649   92.2354   15.6140 C.3     1  UNL1        0.0188
@<TRIPOS>BOND
     1    24    25    1
     2    25    23    1
     3    23    26    1
     4    26    27    1
     5    23    22    1
     6    22     1    1
     7     1     2   ar
     8     2     3   ar
     9     3     9    1
    10     9    11    1
    11    11    12   ar
    12    12    13   ar
    13    13    14   ar
    14    14    15   ar
    15    15    16   ar
    16    16    17   ar
    17    17    18    1
    18    17    19   ar
    19    19    20   ar
    20    20    21   ar
    21     3     4   ar
    22     4     5   ar
    23     5     6   ar
    24     6     7    1
    25     6     1   ar
    26    21    11   ar
    27    21    15   ar
    28     9    10    1
    29     7     8    1
@<TRIPOS>MOLECULE
*****
 27 29 0 0 0
SMALL
GASTEIGER

@<TRIPOS>ATOM
      1 C          64.0290   86.3819   15.3456 C.ar    1  UNL1        0.0288
      2 C          64.4597   87.6845   14.7392 C.ar    1  UNL1        0.0147
      3 C          64.0321   88.9799   15.3630 C.ar    1  UNL1        0.0482
      4 C          63.1738   88.9728   16.5931 C.ar    1  UNL1        0.0177
      5 C          62.7430   87.6702   17.1995 C.ar    1  UNL1        0.0376
      6 C          63.1707   86.3747   16.5757 C.ar    1  UNL1        0.1310
      7 O          62.7400   85.0721   17.1821 O.3     1  UNL1       -0.5058
      8 H          62.2038   85.0676   17.9506 H       1  UNL1        0.2922
      9 N          64.4628   90.2825   14.7566 N.pl3   1  UNL1       -0.3125
     10 H          64.9595   90.9374   15.2985 H       1  UNL1        0.1522
     11 C          64.1368   90.5873   13.3245 C.ar    1  UNL1        0.0513
     12 C          63.1299   89.7523   12.5904 C.ar    1  UNL1        0.0353
     13 C          62.8039   90.0571   11.1584 C.ar    1  UNL1        0.1001
     14 N          63.4847   91.1970   10.4604 N.ar    1  UNL1       -0.2437
     15 C          64.4915   92.0320   11.1945 C.ar    1  UNL1        0.0833
     16 C          65.1724   93.1719   10.4965 C.ar    1  UNL1        0.0305
     17 C          66.1792   94.0070   11.2305 C.ar    1  UNL1        0.0592
     18 CL         66.8600   95.1468   10.5326 Cl      1  UNL1       -0.0822
     19 C          66.5053   93.7022   12.6626 C.ar    1  UNL1        0.0115
     20 C          65.8245   92.5623   13.3606 C.ar    1  UNL1        0.0036
     21 C          64.8176   91.7272   12.6265 C.ar    1  UNL1        0.0312
     22 C          64.4566   85.0865   14.7219 C.3     1  UNL1        0.1022
     23 N          63.4350   84.1777   14.1052 N.3     1  UNL1       -0.2689
     24 C          62.9930   84.4002   11.5546 C.3     1  UNL1        0.0188
     25 C          62.5822   84.6672   12.9724 C.3     1  UNL1        0.0724
     26 C          63.2661   82.7795   14.6213 C.3     1  UNL1        0.0724
     27 C          62.0510   81.9836   14.2472 C.3     1  UNL1        0.0188
@<TRIPOS>BOND
     1    24    25    1
     2    25    23    1
     3    23    26    1
     4    26    27    1
     5    23    22    1
     6    22     1    1
     7     1     2   ar
     8     2     3   ar
     9     3     9    1
    10     9    11    1
    11    11    12   ar
    12    12    13   ar
    13    13    14   ar
    14    14    15   ar
    15    15    16   ar
    16    16    17   ar
    17    17    18    1
    18    17    19   ar
    19    19    20   ar
    20    20    21   ar
    21     3     4   ar
    22     4     5   ar
    23     5     6   ar
    24     6     7    1
    25     6     1   ar
    26    21    11   ar
    27    21    15   ar
    28     9    10    1
    29     7     8    1
@<TRIPOS>MOLECULE
*****
 27 29 0 0 0
SMALL
GASTEIGER

@<TRIPOS>ATOM
      1 C          65.9695   92.9764   12.3351 C.ar    1  UNL1        0.0288
      2 C          64.6878   92.3551   11.8647 C.ar    1  UNL1        0.0147
      3 C          64.0623   91.2405   12.6498 C.ar    1  UNL1        0.0482
      4 C          64.7184   90.7471   13.9053 C.ar    1  UNL1        0.0177
      5 C          66.0001   91.3685   14.3756 C.ar    1  UNL1        0.0376
      6 C          66.6256   92.4832   13.5905 C.ar    1  UNL1        0.1310
      7 O          67.9073   93.1045   14.0609 O.3     1  UNL1       -0.5058
      8 H          68.3172   92.7964   14.8451 H       1  UNL1        0.2922
      9 N          62.7806   90.6191   12.1794 N.pl3   1  UNL1       -0.3125
     10 H          62.0008   91.1874   11.9837 H       1  UNL1        0.1522
     11 C          62.6870   89.1319   12.0072 C.ar    1  UNL1        0.0513
     12 C          63.4533   88.2215   12.9203 C.ar    1  UNL1        0.0353
     13 C          63.3597   86.7344   12.7480 C.ar    1  UNL1        0.1001
     14 N          62.4999   86.1577   11.6626 N.ar    1  UNL1       -0.2437
     15 C          61.7336   87.0682   10.7495 C.ar    1  UNL1        0.0833
     16 C          60.8737   86.4915    9.6641 C.ar    1  UNL1        0.0305
     17 C          60.1074   87.4020    8.7509 C.ar    1  UNL1        0.0592
     18 CL         59.2476   86.8253    7.6655 Cl      1  UNL1       -0.0822
     19 C          60.2010   88.8892    8.9232 C.ar    1  UNL1        0.0115
     20 C          61.0609   89.4658   10.0086 C.ar    1  UNL1        0.0036
     21 C          61.8272   88.5553   10.9217 C.ar    1  UNL1        0.0312
     22 C          66.5950   94.0911   11.5500 C.3     1  UNL1        0.1022
     23 N          67.3393   93.7903   10.2830 N.3     1  UNL1       -0.2689
     24 C          68.7947   92.1483    8.8916 C.3     1  UNL1        0.0188
     25 C          67.8343   92.3997   10.0161 C.3     1  UNL1        0.0724
     26 C          67.5887   94.8800    9.2828 C.3     1  UNL1        0.0724
     27 C          67.1488   96.2834    9.5774 C.3     1  UNL1        0.0188
@<TRIPOS>BOND
     1    24    25    1
     2    25    23    1
     3    23    26    1
     4    26    27    1
     5    23    22    1
     6    22     1    1
     7     1     2   ar
     8     2     3   ar
     9     3     9    1
    10     9    11    1
    11    11    12   ar
    12    12    13   ar
    13    13    14   ar
    14    14    15   ar
    15    15    16   ar
    16    16    17   ar
    17    17    18    1
    18    17    19   ar
    19    19    20   ar
    20    20    21   ar
    21     3     4   ar
    22     4     5   ar
    23     5     6   ar
    24     6     7    1
    25     6     1   ar
    26    21    11   ar
    27    21    15   ar
    28     9    10    1
    29     7     8    1
@<TRIPOS>MOLECULE
*****
 27 29 0 0 0
SMALL
GASTEIGER

@<TRIPOS>ATOM
      1 C          61.2022   86.5220   10.0186 C.ar    1  UNL1        0.0288
      2 C          62.0502   85.6030   10.8471 C.ar    1  UNL1        0.0147
      3 C          62.9800   84.6342   10.1787 C.ar    1  UNL1        0.0482
      4 C          63.0619   84.5843    8.6817 C.ar    1  UNL1        0.0177
      5 C          62.2139   85.5033    7.8532 C.ar    1  UNL1        0.0376
      6 C          61.2841   86.4721    8.5217 C.ar    1  UNL1        0.1310
      7 O          60.4361   87.3911    7.6932 O.3     1  UNL1       -0.5058
      8 H          60.4872   87.3600    6.7581 H       1  UNL1        0.2922
      9 N          63.8280   83.7152   11.0071 N.pl3   1  UNL1       -0.3125
     10 H          64.7535   83.5196   10.7342 H       1  UNL1        0.1522
     11 C          63.2659   83.0941   12.2515 C.ar    1  UNL1        0.0513
     12 C          62.6932   81.7086   12.2054 C.ar    1  UNL1        0.0353
     13 C          62.1311   81.0876   13.4498 C.ar    1  UNL1        0.1001
     14 N          62.1417   81.8522   14.7402 N.ar    1  UNL1       -0.2437
     15 C          62.7144   83.2378   14.7863 C.ar    1  UNL1        0.0833
     16 C          62.7249   84.0024   16.0767 C.ar    1  UNL1        0.0305
     17 C          63.2976   85.3880   16.1228 C.ar    1  UNL1        0.0592
     18 CL         63.3082   86.1527   17.4133 Cl      1  UNL1       -0.0822
     19 C          63.8597   86.0091   14.8785 C.ar    1  UNL1        0.0115
     20 C          63.8492   85.2444   13.5880 C.ar    1  UNL1        0.0036
     21 C          63.2764   83.8588   13.5420 C.ar    1  UNL1        0.0312
     22 C          60.2724   87.4908   10.6871 C.3     1  UNL1        0.1022
     23 N          60.8177   88.7302   11.3323 N.3     1  UNL1       -0.2689
     24 C          63.1743   89.1556   12.3402 C.3     1  UNL1        0.0188
     25 C          62.2610   89.0968   11.1517 C.3     1  UNL1        0.0724
     26 C          59.9199   89.6031   12.1581 C.3     1  UNL1        0.0724
     27 C          59.2121   90.7637   11.5240 C.3     1  UNL1        0.0188
@<TRIPOS>BOND
     1    24    25    1
     2    25    23    1
     3    23    26    1
     4    26    27    1
     5    23    22    1
     6    22     1    1
     7     1     2   ar
     8     2     3   ar
     9     3     9    1
    10     9    11    1
    11    11    12   ar
    12    12    13   ar
    13    13    14   ar
    14    14    15   ar
    15    15    16   ar
    16    16    17   ar
    17    17    18    1
    18    17    19   ar
    19    19    20   ar
    20    20    21   ar
    21     3     4   ar
    22     4     5   ar
    23     5     6   ar
    24     6     7    1
    25     6     1   ar
    26    21    11   ar
    27    21    15   ar
    28     9    10    1
    29     7     8    1
@<TRIPOS>MOLECULE
*****
 27 29 0 0 0
SMALL
GASTEIGER

@<TRIPOS>ATOM
      1 C          65.2045   92.3283   11.8696 C.ar    1  UNL1        0.0288
      2 C          64.0005   91.4339   11.8484 C.ar    1  UNL1        0.0147
      3 C          63.7460   90.4918   12.9875 C.ar    1  UNL1        0.0482
      4 C          64.6954   90.4440   14.1478 C.ar    1  UNL1        0.0177
      5 C          65.8994   91.3385   14.1690 C.ar    1  UNL1        0.0376
      6 C          66.1539   92.2806   13.0299 C.ar    1  UNL1        0.1310
      7 O          67.3579   93.1751   13.0511 O.3     1  UNL1       -0.5058
      8 H          67.9509   93.1453   13.7759 H       1  UNL1        0.2922
      9 N          62.5420   89.5973   12.9663 N.pl3   1  UNL1       -0.3125
     10 H          62.0061   89.4737   13.7829 H       1  UNL1        0.1522
     11 C          62.1546   88.8911   11.7009 C.ar    1  UNL1        0.0513
     12 C          61.4911   89.6511   10.5908 C.ar    1  UNL1        0.0353
     13 C          61.1036   88.9449    9.3255 C.ar    1  UNL1        0.1001
     14 N          61.3797   87.4787    9.1702 N.ar    1  UNL1       -0.2437
     15 C          62.0431   86.7187   10.2802 C.ar    1  UNL1        0.0833
     16 C          62.3192   85.2525   10.1249 C.ar    1  UNL1        0.0305
     17 C          62.9826   84.4926   11.2350 C.ar    1  UNL1        0.0592
     18 CL         63.2587   83.0264   11.0796 Cl      1  UNL1       -0.0822
     19 C          63.3701   85.1988   12.5004 C.ar    1  UNL1        0.0115
     20 C          63.0941   86.6649   12.6557 C.ar    1  UNL1        0.0036
     21 C          62.4306   87.4249   11.5456 C.ar    1  UNL1        0.0312
     22 C          65.4590   93.2705   10.7304 C.3     1  UNL1        0.1022
     23 N          66.8360   93.3874   10.1472 N.3     1  UNL1       -0.2689
     24 C          67.0856   95.3813    8.5003 C.3     1  UNL1        0.0188
     25 C          67.3992   94.7383    9.8188 C.3     1  UNL1        0.0724
     26 C          67.6497   92.1534    9.8922 C.3     1  UNL1        0.0724
     27 C          68.8023   92.1998    8.9334 C.3     1  UNL1        0.0188
@<TRIPOS>BOND
     1    24    25    1
     2    25    23    1
     3    23    26    1
     4    26    27    1
     5    23    22    1
     6    22     1    1
     7     1     2   ar
     8     2     3   ar
     9     3     9    1
    10     9    11    1
    11    11    12   ar
    12    12    13   ar
    13    13    14   ar
    14    14    15   ar
    15    15    16   ar
    16    16    17   ar
    17    17    18    1
    18    17    19   ar
    19    19    20   ar
    20    20    21   ar
    21     3     4   ar
    22     4     5   ar
    23     5     6   ar
    24     6     7    1
    25     6     1   ar
    26    21    11   ar
    27    21    15   ar
    28     9    10    1
    29     7     8    1
@<TRIPOS>MOLECULE
*****
 27 29 0 0 0
SMALL
GASTEIGER

@<TRIPOS>ATOM
      1 C          65.0524   92.2164   12.1009 C.ar    1  UNL1        0.0288
      2 C          64.1218   91.0874   11.7704 C.ar    1  UNL1        0.0147
      3 C          63.8772   89.9990   12.7732 C.ar    1  UNL1        0.0482
      4 C          64.5633   90.0396   14.1065 C.ar    1  UNL1        0.0177
      5 C          65.4940   91.1686   14.4370 C.ar    1  UNL1        0.0376
      6 C          65.7385   92.2570   13.4341 C.ar    1  UNL1        0.1310
      7 O          66.6692   93.3860   13.7645 O.3     1  UNL1       -0.5058
      8 H          67.0978   93.4114   14.5974 H       1  UNL1        0.2922
      9 N          62.9465   88.8700   12.4427 N.pl3   1  UNL1       -0.3125
     10 H          63.0548   87.9972   12.8851 H       1  UNL1        0.1522
     11 C          61.8508   89.0708   11.4382 C.ar    1  UNL1        0.0513
     12 C          60.9533   90.2686   11.5367 C.ar    1  UNL1        0.0353
     13 C          59.8576   90.4694   10.5321 C.ar    1  UNL1        0.1001
     14 N          59.6594   89.4724    9.4291 N.ar    1  UNL1       -0.2437
     15 C          60.5569   88.2746    9.3306 C.ar    1  UNL1        0.0833
     16 C          60.3587   87.2776    8.2275 C.ar    1  UNL1        0.0305
     17 C          61.2562   86.0798    8.1290 C.ar    1  UNL1        0.0592
     18 CL         61.0580   85.0828    7.0260 Cl      1  UNL1       -0.0822
     19 C          62.3520   85.8790    9.1336 C.ar    1  UNL1        0.0115
     20 C          62.5502   86.8760   10.2366 C.ar    1  UNL1        0.0036
     21 C          61.6526   88.0738   10.3351 C.ar    1  UNL1        0.0312
     22 C          65.2970   93.3048   11.0980 C.3     1  UNL1        0.1022
     23 N          66.6582   93.4733   10.4910 N.3     1  UNL1       -0.2689
     24 C          68.6219   92.2857    9.2729 C.3     1  UNL1        0.0188
     25 C          67.5615   92.2861   10.3339 C.3     1  UNL1        0.0724
     26 C          67.1163   94.8289   10.0412 C.3     1  UNL1        0.0724
     27 C          66.5777   96.0612   10.7055 C.3     1  UNL1        0.0188
@<TRIPOS>BOND
     1    24    25    1
     2    25    23    1
     3    23    26    1
     4    26    27    1
     5    23    22    1
     6    22     1    1
     7     1     2   ar
     8     2     3   ar
     9     3     9    1
    10     9    11    1
    11    11    12   ar
    12    12    13   ar
    13    13    14   ar
    14    14    15   ar
    15    15    16   ar
    16    16    17   ar
    17    17    18    1
    18    17    19   ar
    19    19    20   ar
    20    20    21   ar
    21     3     4   ar
    22     4     5   ar
    23     5     6   ar
    24     6     7    1
    25     6     1   ar
    26    21    11   ar
    27    21    15   ar
    28     9    10    1
    29     7     8    1
@<TRIPOS>MOLECULE
*****
 27 29 0 0 0
SMALL
GASTEIGER

@<TRIPOS>ATOM
      1 C          64.4786   90.2265   14.7924 C.ar    1  UNL1        0.0288
      2 C          64.6405   88.8001   14.3574 C.ar    1  UNL1        0.0147
      3 C          64.0185   87.6961   15.1600 C.ar    1  UNL1        0.0482
      4 C          63.2346   88.0185   16.3976 C.ar    1  UNL1        0.0177
      5 C          63.0727   89.4449   16.8326 C.ar    1  UNL1        0.0376
      6 C          63.6948   90.5489   16.0299 C.ar    1  UNL1        0.1310
      7 O          63.5329   91.9753   16.4649 O.3     1  UNL1       -0.5058
      8 H          63.0432   92.1767   17.2379 H       1  UNL1        0.2922
      9 N          64.1803   86.2697   14.7251 N.pl3   1  UNL1       -0.3125
     10 H          64.7215   85.6490   15.2645 H       1  UNL1        0.1522
     11 C          63.5175   85.7891   13.4682 C.ar    1  UNL1        0.0513
     12 C          63.0657   86.7768   12.4336 C.ar    1  UNL1        0.0353
     13 C          62.4030   86.2961   11.1768 C.ar    1  UNL1        0.1001
     14 N          62.1919   84.8278   10.9545 N.ar    1  UNL1       -0.2437
     15 C          62.6437   83.8401   11.9891 C.ar    1  UNL1        0.0833
     16 C          62.4326   82.3717   11.7668 C.ar    1  UNL1        0.0305
     17 C          62.8844   81.3840   12.8014 C.ar    1  UNL1        0.0592
     18 CL         62.6733   79.9157   12.5791 Cl      1  UNL1       -0.0822
     19 C          63.5472   81.8647   14.0583 C.ar    1  UNL1        0.0115
     20 C          63.7582   83.3330   14.2805 C.ar    1  UNL1        0.0036
     21 C          63.3065   84.3207   13.2459 C.ar    1  UNL1        0.0312
     22 C          65.1007   91.3306   13.9897 C.3     1  UNL1        0.1022
     23 N          64.6175   91.6096   12.5973 N.3     1  UNL1       -0.2689
     24 C          66.1789   93.6744   12.3775 C.3     1  UNL1        0.0188
     25 C          65.3353   92.6100   11.7408 C.3     1  UNL1        0.0724
     26 C          63.4165   90.8880   12.0616 C.3     1  UNL1        0.0724
     27 C          63.0540   91.0092   10.6111 C.3     1  UNL1        0.0188
@<TRIPOS>BOND
     1    24    25    1
     2    25    23    1
     3    23    26    1
     4    26    27    1
     5    23    22    1
     6    22     1    1
     7     1     2   ar
     8     2     3   ar
     9     3     9    1
    10     9    11    1
    11    11    12   ar
    12    12    13   ar
    13    13    14   ar
    14    14    15   ar
    15    15    16   ar
    16    16    17   ar
    17    17    18    1
    18    17    19   ar
    19    19    20   ar
    20    20    21   ar
    21     3     4   ar
    22     4     5   ar
    23     5     6   ar
    24     6     7    1
    25     6     1   ar
    26    21    11   ar
    27    21    15   ar
    28     9    10    1
    29     7     8    1
@<TRIPOS>MOLECULE
*****
 27 29 0 0 0
SMALL
GASTEIGER

@<TRIPOS>ATOM
      1 C          63.1066   84.6801   13.5165 C.ar    1  UNL1        0.0288
      2 C          62.7683   85.6221   12.3992 C.ar    1  UNL1        0.0147
      3 C          63.2131   87.0531   12.4642 C.ar    1  UNL1        0.0482
      4 C          63.9963   87.5422   13.6463 C.ar    1  UNL1        0.0177
      5 C          64.3346   86.6002   14.7636 C.ar    1  UNL1        0.0376
      6 C          63.8897   85.1691   14.6986 C.ar    1  UNL1        0.1310
      7 O          64.2280   84.2271   15.8158 O.3     1  UNL1       -0.5058
      8 H          64.7172   84.5326   16.5543 H       1  UNL1        0.2922
      9 N          62.8748   87.9951   11.3469 N.pl3   1  UNL1       -0.3125
     10 H          63.4713   88.7512   11.1429 H       1  UNL1        0.1522
     11 C          61.6276   87.7849   10.5405 C.ar    1  UNL1        0.0513
     12 C          60.3638   88.5019   10.9131 C.ar    1  UNL1        0.0353
     13 C          59.1167   88.2917   10.1066 C.ar    1  UNL1        0.1001
     14 N          59.1333   87.3646    8.9275 N.ar    1  UNL1       -0.2437
     15 C          60.3970   86.6476    8.5549 C.ar    1  UNL1        0.0833
     16 C          60.4137   85.7205    7.3759 C.ar    1  UNL1        0.0305
     17 C          61.6774   85.0036    7.0033 C.ar    1  UNL1        0.0592
     18 CL         61.6940   84.0765    5.8242 Cl      1  UNL1       -0.0822
     19 C          62.9246   85.2137    7.8097 C.ar    1  UNL1        0.0115
     20 C          62.9080   86.1409    8.9888 C.ar    1  UNL1        0.0036
     21 C          61.6442   86.8578    9.3614 C.ar    1  UNL1        0.0312
     22 C          62.6618   83.2490   13.4515 C.3     1  UNL1        0.1022
     23 N          63.5673   82.2080   12.8630 N.3     1  UNL1       -0.2689
     24 C          62.1980   80.0739   13.4292 C.3     1  UNL1        0.0188
     25 C          63.5116   80.7954   13.3643 C.3     1  UNL1        0.0724
     26 C          64.5287   82.5797   11.7732 C.3     1  UNL1        0.0724
     27 C          64.0805   82.5690   10.3419 C.3     1  UNL1        0.0188
@<TRIPOS>BOND
     1    24    25    1
     2    25    23    1
     3    23    26    1
     4    26    27    1
     5    23    22    1
     6    22     1    1
     7     1     2   ar
     8     2     3   ar
     9     3     9    1
    10     9    11    1
    11    11    12   ar
    12    12    13   ar
    13    13    14   ar
    14    14    15   ar
    15    15    16   ar
    16    16    17   ar
    17    17    18    1
    18    17    19   ar
    19    19    20   ar
    20    20    21   ar
    21     3     4   ar
    22     4     5   ar
    23     5     6   ar
    24     6     7    1
    25     6     1   ar
    26    21    11   ar
    27    21    15   ar
    28     9    10    1
    29     7     8    1
