@<TRIPOS>MOLECULE
*****
 40 44 0 0 0
SMALL
GASTEIGER

@<TRIPOS>ATOM
      1 C          62.9579   87.6430   17.6381 C.3     1  UNL1        0.0312
      2 C          63.3998   87.9603   16.2403 C.2     1  UNL1        0.0125
      3 C          63.7949   89.3614   15.8784 C.2     1  UNL1        0.0007
      4 C          64.2369   89.6787   14.4806 C.2     1  UNL1        0.0564
      5 C          64.2838   88.5950   13.4446 C.2     1  UNL1        0.0513
      6 C          63.8888   87.1939   13.8064 C.2     1  UNL1        0.2235
      7 N          63.8342   85.9276   13.0043 N.2     1  UNL1       -0.0378
      8 C          63.3585   84.8276   13.9064 C.2     1  UNL1        0.3605
      9 N          63.1191   85.4141   15.2660 N.2     1  UNL1       -0.0547
     10 C          63.4468   86.8766   15.2043 C.3     1  UNL1        0.2975
     11 C          63.1576   83.3930   13.5171 C.3     1  UNL1        0.2246
     12 C          62.6143   83.0529   12.1610 C.2     1  UNL1        0.0436
     13 C          62.4133   81.6182   11.7719 C.2     1  UNL1        0.0288
     14 C          62.7556   80.5237   12.7388 C.2     1  UNL1        0.0896
     15 N          63.2989   80.8639   14.0949 N.am    1  UNL1       -0.1770
     16 C          63.4999   82.2986   14.4841 C.2     1  UNL1        0.2627
     17 O          64.0431   82.6387   15.8402 O.2     1  UNL1       -0.2719
     18 N          62.2720   84.1472   11.1940 N.pl3   1  UNL1       -0.3329
     19 H          61.4437   84.6664   11.3113 H       1  UNL1        0.1466
     20 C          63.1915   84.4507   10.0484 C.3     1  UNL1        0.1211
     21 C          62.6853   85.2188    8.8636 C.3     1  UNL1        0.1522
     22 O          62.9694   84.7284    7.4748 O.3     1  UNL1       -0.3783
     23 H          63.4870   83.9093    7.5207 H       1  UNL1        0.2109
     24 C          61.8950   86.4773    9.0676 C.ar    1  UNL1        0.0067
     25 C          60.4987   86.5816    8.5297 C.ar    1  UNL1       -0.0018
     26 C          59.7084   87.8401    8.7337 C.ar    1  UNL1        0.0006
     27 C          60.3144   88.9943    9.4756 C.ar    1  UNL1        0.0114
     28 C          61.7107   88.8900   10.0135 C.ar    1  UNL1        0.0574
     29 CL         62.3168   90.0442   10.7555 Cl      1  UNL1       -0.0823
     30 C          62.5010   87.6315    9.8095 C.ar    1  UNL1        0.0095
     31 C          64.6319   91.0799   14.1188 C.2     1  UNL1        0.2459
     32 O          64.5436   92.1722   15.1430 O.2     1  UNL1       -0.2701
     33 N          65.1153   91.3886   12.7328 N.am    1  UNL1       -0.3025
     34 H          65.1732   90.6716   12.0606 H       1  UNL1        0.1497
     35 C          65.5103   92.7896   12.3709 C.3     1  UNL1        0.0719
     36 C          66.1861   93.6640   13.3852 C.3     1  UNL1        0.0196
     37 C          66.5812   95.0651   13.0232 C.3     1  UNL1        0.0017
     38 C          66.3004   95.5918   11.6471 C.3     1  UNL1        0.0001
     39 C          65.6246   94.7173   10.6328 C.3     1  UNL1        0.0017
     40 C          65.2296   93.3163   10.9948 C.3     1  UNL1        0.0196
@<TRIPOS>BOND
     1     1     2    1
     2     2     3    2
     3     3     4    1
     4     4    31    1
     5    31    32    2
     6    31    33   am
     7    33    35    1
     8    35    36    1
     9    36    37    1
    10    37    38    1
    11    38    39    1
    12    39    40    1
    13     4     5    2
    14     5     6    1
    15     6     7    2
    16     7     8    1
    17     8    11    1
    18    11    12    1
    19    12    18    1
    20    18    20    1
    21    20    21    1
    22    21    22    1
    23    21    24    1
    24    24    25   ar
    25    25    26   ar
    26    26    27   ar
    27    27    28   ar
    28    28    29    1
    29    28    30   ar
    30    12    13    2
    31    13    14    1
    32    14    15    2
    33    15    16    1
    34    16    17    2
    35     8     9    2
    36     9    10    1
    37    10     2    1
    38    40    35    1
    39    10     6    1
    40    16    11    1
    41    30    24   ar
    42    33    34    1
    43    18    19    1
    44    22    23    1
@<TRIPOS>MOLECULE
*****
 40 44 0 0 0
SMALL
GASTEIGER

@<TRIPOS>ATOM
      1 C          62.6735   89.4328   11.9680 C.3     1  UNL1        0.0312
      2 C          61.9759   88.5534   10.9730 C.2     1  UNL1        0.0125
      3 C          61.1927   89.1661    9.8499 C.2     1  UNL1        0.0007
      4 C          60.4952   88.2867    8.8549 C.2     1  UNL1        0.0564
      5 C          60.5807   86.7946    8.9830 C.2     1  UNL1        0.0513
      6 C          61.3638   86.1819   10.1061 C.2     1  UNL1        0.2235
      7 N          61.6252   84.7545   10.4856 N.2     1  UNL1       -0.0378
      8 C          62.4843   84.7517   11.7152 C.2     1  UNL1        0.3605
      9 N          62.7539   86.1774   12.0956 N.2     1  UNL1       -0.0547
     10 C          62.0614   87.0614   11.1011 C.3     1  UNL1        0.2975
     11 C          62.9858   83.5365   12.4376 C.3     1  UNL1        0.2246
     12 C          62.7933   83.4125   13.9200 C.2     1  UNL1        0.0436
     13 C          63.2948   82.1973   14.6424 C.2     1  UNL1        0.0288
     14 C          63.9889   81.1061   13.8824 C.2     1  UNL1        0.0896
     15 N          64.1814   81.2301   12.3999 N.am    1  UNL1       -0.1770
     16 C          63.6799   82.4454   11.6776 C.2     1  UNL1        0.2627
     17 O          63.8724   82.5694   10.1952 O.2     1  UNL1       -0.2719
     18 N          62.0992   84.5036   14.6801 N.pl3   1  UNL1       -0.3329
     19 H          61.1776   84.7577   14.4451 H       1  UNL1        0.1466
     20 C          62.8094   85.2076   15.7982 C.3     1  UNL1        0.1211
     21 C          64.0094   86.0588   15.5061 C.3     1  UNL1        0.1522
     22 O          65.2958   85.4190   15.0749 O.3     1  UNL1       -0.3783
     23 H          65.1810   84.4566   15.0357 H       1  UNL1        0.2109
     24 C          63.9232   87.5498   15.6454 C.ar    1  UNL1        0.0067
     25 C          63.1204   88.1539   16.7591 C.ar    1  UNL1       -0.0018
     26 C          63.0341   89.6450   16.8983 C.ar    1  UNL1        0.0006
     27 C          63.7507   90.5319   15.9238 C.ar    1  UNL1        0.0114
     28 C          64.5535   89.9278   14.8100 C.ar    1  UNL1        0.0574
     29 CL         65.2701   90.8148   13.8355 Cl      1  UNL1       -0.0823
     30 C          64.6398   88.4368   14.6708 C.ar    1  UNL1        0.0095
     31 C          59.7120   88.8994    7.7318 C.2     1  UNL1        0.2459
     32 O          58.4485   88.2466    7.2551 O.2     1  UNL1       -0.2701
     33 N          60.1925   90.1649    7.0854 N.am    1  UNL1       -0.3025
     34 H          61.0218   90.5933    7.3983 H       1  UNL1        0.1497
     35 C          59.4094   90.7776    5.9623 C.3     1  UNL1        0.0719
     36 C          60.1217   91.5049    4.8607 C.3     1  UNL1        0.0196
     37 C          59.3385   92.1175    3.7376 C.3     1  UNL1        0.0017
     38 C          57.8430   92.0029    3.7161 C.3     1  UNL1        0.0001
     39 C          57.1307   91.2756    4.8178 C.3     1  UNL1        0.0017
     40 C          57.9139   90.6629    5.9409 C.3     1  UNL1        0.0196
@<TRIPOS>BOND
     1     1     2    1
     2     2     3    2
     3     3     4    1
     4     4    31    1
     5    31    32    2
     6    31    33   am
     7    33    35    1
     8    35    36    1
     9    36    37    1
    10    37    38    1
    11    38    39    1
    12    39    40    1
    13     4     5    2
    14     5     6    1
    15     6     7    2
    16     7     8    1
    17     8    11    1
    18    11    12    1
    19    12    18    1
    20    18    20    1
    21    20    21    1
    22    21    22    1
    23    21    24    1
    24    24    25   ar
    25    25    26   ar
    26    26    27   ar
    27    27    28   ar
    28    28    29    1
    29    28    30   ar
    30    12    13    2
    31    13    14    1
    32    14    15    2
    33    15    16    1
    34    16    17    2
    35     8     9    2
    36     9    10    1
    37    10     2    1
    38    40    35    1
    39    10     6    1
    40    16    11    1
    41    30    24   ar
    42    33    34    1
    43    18    19    1
    44    22    23    1
@<TRIPOS>MOLECULE
*****
 40 44 0 0 0
SMALL
GASTEIGER

@<TRIPOS>ATOM
      1 C          63.0012   84.4730    7.4512 C.3     1  UNL1        0.0312
      2 C          62.1322   85.4449    8.1930 C.2     1  UNL1        0.0125
      3 C          61.2258   86.3697    7.4360 C.2     1  UNL1        0.0007
      4 C          60.3568   87.3415    8.1778 C.2     1  UNL1        0.0564
      5 C          60.3941   87.3886    9.6766 C.2     1  UNL1        0.0513
      6 C          61.3005   86.4637   10.4336 C.2     1  UNL1        0.2235
      7 N          61.5501   86.2820   11.9015 N.2     1  UNL1       -0.0378
      8 C          62.5735   85.1979   12.0669 C.2     1  UNL1        0.3605
      9 N          62.9563   84.7095   10.7012 N.2     1  UNL1       -0.0547
     10 C          62.1696   85.4919    9.6918 C.3     1  UNL1        0.2975
     11 C          63.1184   84.6910   13.3693 C.3     1  UNL1        0.2246
     12 C          63.7955   85.6357   14.3174 C.2     1  UNL1        0.0436
     13 C          64.3404   85.1288   15.6198 C.2     1  UNL1        0.0288
     14 C          64.2081   83.6772   15.9741 C.2     1  UNL1        0.0896
     15 N          63.5310   82.7325   15.0259 N.am    1  UNL1       -0.1770
     16 C          62.9861   83.2395   13.7235 C.2     1  UNL1        0.2627
     17 O          62.3090   82.2948   12.7753 O.2     1  UNL1       -0.2719
     18 N          63.9278   87.0873   13.9633 N.pl3   1  UNL1       -0.3329
     19 H          63.7361   87.3897   13.0462 H       1  UNL1        0.1466
     20 C          64.3521   88.0782   15.0064 C.3     1  UNL1        0.1211
     21 C          63.8414   89.4875   14.9538 C.3     1  UNL1        0.1522
     22 O          62.9520   90.0042   16.0456 O.3     1  UNL1       -0.3783
     23 H          62.8068   89.3052   16.7023 H       1  UNL1        0.2109
     24 C          64.2201   90.3803   13.8094 C.ar    1  UNL1        0.0067
     25 C          65.3987   91.2997   13.9335 C.ar    1  UNL1       -0.0018
     26 C          65.7773   92.1925   12.7892 C.ar    1  UNL1        0.0006
     27 C          64.9774   92.1658   11.5206 C.ar    1  UNL1        0.0114
     28 C          63.7988   91.2463   11.3964 C.ar    1  UNL1        0.0574
     29 CL         62.9988   91.2196   10.1278 Cl      1  UNL1       -0.0823
     30 C          63.4201   90.3536   12.5408 C.ar    1  UNL1        0.0095
     31 C          59.4503   88.2665    7.4207 C.2     1  UNL1        0.2459
     32 O          57.9647   88.0644    7.4666 O.2     1  UNL1       -0.2701
     33 N          60.0296   89.3934    6.6179 N.am    1  UNL1       -0.3025
     34 H          61.0046   89.5260    6.5878 H       1  UNL1        0.1497
     35 C          59.1232   90.3182    5.8609 C.3     1  UNL1        0.0719
     36 C          59.7048   91.4060    5.0073 C.3     1  UNL1        0.0196
     37 C          58.7983   92.3309    4.2503 C.3     1  UNL1        0.0017
     38 C          57.3103   92.1680    4.3469 C.3     1  UNL1        0.0001
     39 C          56.7288   91.0801    5.2004 C.3     1  UNL1        0.0017
     40 C          57.6352   90.1553    5.9574 C.3     1  UNL1        0.0196
@<TRIPOS>BOND
     1     1     2    1
     2     2     3    2
     3     3     4    1
     4     4    31    1
     5    31    32    2
     6    31    33   am
     7    33    35    1
     8    35    36    1
     9    36    37    1
    10    37    38    1
    11    38    39    1
    12    39    40    1
    13     4     5    2
    14     5     6    1
    15     6     7    2
    16     7     8    1
    17     8    11    1
    18    11    12    1
    19    12    18    1
    20    18    20    1
    21    20    21    1
    22    21    22    1
    23    21    24    1
    24    24    25   ar
    25    25    26   ar
    26    26    27   ar
    27    27    28   ar
    28    28    29    1
    29    28    30   ar
    30    12    13    2
    31    13    14    1
    32    14    15    2
    33    15    16    1
    34    16    17    2
    35     8     9    2
    36     9    10    1
    37    10     2    1
    38    40    35    1
    39    10     6    1
    40    16    11    1
    41    30    24   ar
    42    33    34    1
    43    18    19    1
    44    22    23    1
@<TRIPOS>MOLECULE
*****
 40 44 0 0 0
SMALL
GASTEIGER

@<TRIPOS>ATOM
      1 C          61.8044   89.5758   10.1827 C.3     1  UNL1        0.0312
      2 C          62.3749   88.5221   11.0850 C.2     1  UNL1        0.0125
      3 C          62.1735   87.0707   10.7643 C.2     1  UNL1        0.0007
      4 C          62.7439   86.0170   11.6666 C.2     1  UNL1        0.0564
      5 C          63.5159   86.4146   12.8897 C.2     1  UNL1        0.0513
      6 C          63.7173   87.8660   13.2105 C.2     1  UNL1        0.2235
      7 N          64.4281   88.5557   14.3371 N.2     1  UNL1       -0.0378
      8 C          64.2969   90.0356   14.1310 C.2     1  UNL1        0.3605
      9 N          63.5050   90.2607   12.8770 N.2     1  UNL1       -0.0547
     10 C          63.1468   88.9197   12.3081 C.3     1  UNL1        0.2975
     11 C          64.8588   91.1032   15.0223 C.3     1  UNL1        0.2246
     12 C          66.0576   91.8915   14.5846 C.2     1  UNL1        0.0436
     13 C          66.6195   92.9590   15.4760 C.2     1  UNL1        0.0288
     14 C          65.9827   93.2383   16.8051 C.2     1  UNL1        0.0896
     15 N          64.7840   92.4501   17.2429 N.am    1  UNL1       -0.1770
     16 C          64.2221   91.3825   16.3514 C.2     1  UNL1        0.2627
     17 O          63.0233   90.5942   16.7892 O.2     1  UNL1       -0.2719
     18 N          66.6944   91.6122   13.2555 N.pl3   1  UNL1       -0.3329
     19 H          67.4168   90.9470   13.1859 H       1  UNL1        0.1466
     20 C          66.2307   92.3466   12.0326 C.3     1  UNL1        0.1211
     21 C          67.2290   92.8171   11.0167 C.3     1  UNL1        0.1522
     22 O          68.5258   92.0833   10.8437 O.3     1  UNL1       -0.3783
     23 H          68.5589   91.3355   11.4607 H       1  UNL1        0.2109
     24 C          66.9306   94.0215   10.1739 C.ar    1  UNL1        0.0067
     25 C          67.8632   94.4111    9.0656 C.ar    1  UNL1       -0.0018
     26 C          67.5648   95.6155    8.2228 C.ar    1  UNL1        0.0006
     27 C          66.3337   96.4304    8.4883 C.ar    1  UNL1        0.0114
     28 C          65.4011   96.0408    9.5966 C.ar    1  UNL1        0.0574
     29 CL         64.1701   96.8557    9.8621 Cl      1  UNL1       -0.0823
     30 C          65.6996   94.8364   10.4394 C.ar    1  UNL1        0.0095
     31 C          62.5425   84.5656   11.3458 C.2     1  UNL1        0.2459
     32 O          61.6331   84.1650   10.2221 O.2     1  UNL1       -0.2701
     33 N          63.2504   83.5147   12.1487 N.am    1  UNL1       -0.3025
     34 H          63.8472   83.7777   12.8862 H       1  UNL1        0.1497
     35 C          63.0489   82.0634   11.8280 C.3     1  UNL1        0.0719
     36 C          63.3055   81.5597   10.4385 C.3     1  UNL1        0.0196
     37 C          63.1040   80.1082   10.1179 C.3     1  UNL1        0.0017
     38 C          62.6461   79.1605   11.1866 C.3     1  UNL1        0.0001
     39 C          62.3895   79.6643   12.5760 C.3     1  UNL1        0.0017
     40 C          62.5910   81.1157   12.8966 C.3     1  UNL1        0.0196
@<TRIPOS>BOND
     1     1     2    1
     2     2     3    2
     3     3     4    1
     4     4    31    1
     5    31    32    2
     6    31    33   am
     7    33    35    1
     8    35    36    1
     9    36    37    1
    10    37    38    1
    11    38    39    1
    12    39    40    1
    13     4     5    2
    14     5     6    1
    15     6     7    2
    16     7     8    1
    17     8    11    1
    18    11    12    1
    19    12    18    1
    20    18    20    1
    21    20    21    1
    22    21    22    1
    23    21    24    1
    24    24    25   ar
    25    25    26   ar
    26    26    27   ar
    27    27    28   ar
    28    28    29    1
    29    28    30   ar
    30    12    13    2
    31    13    14    1
    32    14    15    2
    33    15    16    1
    34    16    17    2
    35     8     9    2
    36     9    10    1
    37    10     2    1
    38    40    35    1
    39    10     6    1
    40    16    11    1
    41    30    24   ar
    42    33    34    1
    43    18    19    1
    44    22    23    1
@<TRIPOS>MOLECULE
*****
 40 44 0 0 0
SMALL
GASTEIGER

@<TRIPOS>ATOM
      1 C          63.0082   84.4687    7.4703 C.3     1  UNL1        0.0312
      2 C          62.1407   85.4438    8.2097 C.2     1  UNL1        0.0125
      3 C          61.2327   86.3653    7.4506 C.2     1  UNL1        0.0007
      4 C          60.3653   87.3404    8.1899 C.2     1  UNL1        0.0564
      5 C          60.4058   87.3941    9.6885 C.2     1  UNL1        0.0513
      6 C          61.3139   86.4726   10.4476 C.2     1  UNL1        0.2235
      7 N          61.5667   86.2974   11.9157 N.2     1  UNL1       -0.0378
      8 C          62.5904   85.2140   12.0837 C.2     1  UNL1        0.3605
      9 N          62.9703   84.7196   10.7194 N.2     1  UNL1       -0.0547
     10 C          62.1813   85.4975    9.7082 C.3     1  UNL1        0.2975
     11 C          63.1381   84.7130   13.3871 C.3     1  UNL1        0.2246
     12 C          63.7940   85.6666   14.3412 C.2     1  UNL1        0.0436
     13 C          64.3417   85.1655   15.6447 C.2     1  UNL1        0.0288
     14 C          64.2336   83.7107   15.9940 C.2     1  UNL1        0.0896
     15 N          63.5777   82.7571   15.0399 N.am    1  UNL1       -0.1770
     16 C          63.0300   83.2582   13.7364 C.2     1  UNL1        0.2627
     17 O          62.3742   82.3046   12.7823 O.2     1  UNL1       -0.2719
     18 N          63.9021   87.1214   13.9920 N.pl3   1  UNL1       -0.3329
     19 H          63.9306   87.4002   13.0483 H       1  UNL1        0.1466
     20 C          63.9669   88.1513   15.0806 C.3     1  UNL1        0.1211
     21 C          63.6512   89.5856   14.7758 C.3     1  UNL1        0.1522
     22 O          62.3612   89.9421   14.0984 O.3     1  UNL1       -0.3783
     23 H          61.8513   89.1346   13.9286 H       1  UNL1        0.2109
     24 C          64.6256   90.6635   15.1483 C.ar    1  UNL1        0.0067
     25 C          64.3410   91.5611   16.3159 C.ar    1  UNL1       -0.0018
     26 C          65.3153   92.6389   16.6884 C.ar    1  UNL1        0.0006
     27 C          66.5744   92.8193   15.8933 C.ar    1  UNL1        0.0114
     28 C          66.8590   91.9218   14.7257 C.ar    1  UNL1        0.0574
     29 CL         68.1181   92.1021   13.9305 Cl      1  UNL1       -0.0823
     30 C          65.8847   90.8439   14.3531 C.ar    1  UNL1        0.0095
     31 C          59.4571   88.2619    7.4307 C.2     1  UNL1        0.2459
     32 O          57.9723   88.0538    7.4723 O.2     1  UNL1       -0.2701
     33 N          60.0340   89.3916    6.6300 N.am    1  UNL1       -0.3025
     34 H          61.0086   89.5282    6.6028 H       1  UNL1        0.1497
     35 C          59.1260   90.3131    5.8709 C.3     1  UNL1        0.0719
     36 C          57.6380   90.1564    5.9786 C.3     1  UNL1        0.0196
     37 C          56.7301   91.0780    5.2194 C.3     1  UNL1        0.0017
     38 C          57.3099   92.1562    4.3525 C.3     1  UNL1        0.0001
     39 C          58.7979   92.3127    4.2449 C.3     1  UNL1        0.0017
     40 C          59.7058   91.3912    5.0041 C.3     1  UNL1        0.0196
@<TRIPOS>BOND
     1     1     2    1
     2     2     3    2
     3     3     4    1
     4     4    31    1
     5    31    32    2
     6    31    33   am
     7    33    35    1
     8    35    36    1
     9    36    37    1
    10    37    38    1
    11    38    39    1
    12    39    40    1
    13     4     5    2
    14     5     6    1
    15     6     7    2
    16     7     8    1
    17     8    11    1
    18    11    12    1
    19    12    18    1
    20    18    20    1
    21    20    21    1
    22    21    22    1
    23    21    24    1
    24    24    25   ar
    25    25    26   ar
    26    26    27   ar
    27    27    28   ar
    28    28    29    1
    29    28    30   ar
    30    12    13    2
    31    13    14    1
    32    14    15    2
    33    15    16    1
    34    16    17    2
    35     8     9    2
    36     9    10    1
    37    10     2    1
    38    40    35    1
    39    10     6    1
    40    16    11    1
    41    30    24   ar
    42    33    34    1
    43    18    19    1
    44    22    23    1
@<TRIPOS>MOLECULE
*****
 40 44 0 0 0
SMALL
GASTEIGER

@<TRIPOS>ATOM
      1 C          61.6479   88.4365    9.9439 C.3     1  UNL1        0.0312
      2 C          62.3323   87.4596   10.8534 C.2     1  UNL1        0.0125
      3 C          62.3986   86.0080   10.4813 C.2     1  UNL1        0.0007
      4 C          63.0830   85.0311   11.3908 C.2     1  UNL1        0.0564
      5 C          63.7011   85.5058   12.6725 C.2     1  UNL1        0.0513
      6 C          63.6348   86.9574   13.0446 C.2     1  UNL1        0.2235
      7 N          64.1493   87.7132   14.2338 N.2     1  UNL1       -0.0378
      8 C          63.7828   89.1572   14.0592 C.2     1  UNL1        0.3605
      9 N          63.0419   89.2939   12.7621 N.2     1  UNL1       -0.0547
     10 C          62.9504   87.9343   12.1351 C.3     1  UNL1        0.2975
     11 C          64.1014   90.2693   15.0140 C.3     1  UNL1        0.2246
     12 C          65.2206   91.2208   14.7105 C.2     1  UNL1        0.0436
     13 C          65.5391   92.3329   15.6654 C.2     1  UNL1        0.0288
     14 C          64.7385   92.4936   16.9236 C.2     1  UNL1        0.0896
     15 N          63.6193   91.5422   17.2271 N.am    1  UNL1       -0.1770
     16 C          63.3008   90.4300   16.2722 C.2     1  UNL1        0.2627
     17 O          62.1816   89.4785   16.5756 O.2     1  UNL1       -0.2719
     18 N          66.0213   91.0602   13.4524 N.pl3   1  UNL1       -0.3329
     19 H          65.8855   90.2708   12.8799 H       1  UNL1        0.1466
     20 C          67.0288   92.1023   13.0663 C.3     1  UNL1        0.1211
     21 C          66.6042   93.2933   12.2593 C.3     1  UNL1        0.1522
     22 O          65.6482   94.2917   12.8417 O.3     1  UNL1       -0.3783
     23 H          65.4045   94.0199   13.7404 H       1  UNL1        0.2109
     24 C          67.1358   93.4859   10.8699 C.ar    1  UNL1        0.0067
     25 C          67.9171   92.3903   10.2072 C.ar    1  UNL1       -0.0018
     26 C          68.4486   92.5829    8.8178 C.ar    1  UNL1        0.0006
     27 C          68.1988   93.8711    8.0911 C.ar    1  UNL1        0.0114
     28 C          67.4175   94.9667    8.7538 C.ar    1  UNL1        0.0574
     29 CL         67.1677   96.2549    8.0271 Cl      1  UNL1       -0.0823
     30 C          66.8860   94.7741   10.1432 C.ar    1  UNL1        0.0095
     31 C          63.1493   83.5795   11.0187 C.2     1  UNL1        0.2459
     32 O          63.8271   83.1613    9.7476 O.2     1  UNL1       -0.2701
     33 N          62.5377   82.5461   11.9176 N.am    1  UNL1       -0.3025
     34 H          62.0928   82.8206   12.7519 H       1  UNL1        0.1497
     35 C          62.6040   81.0945   11.5455 C.3     1  UNL1        0.0719
     36 C          62.7808   80.6954   10.1104 C.3     1  UNL1        0.0196
     37 C          62.8471   79.2437    9.7384 C.3     1  UNL1        0.0017
     38 C          62.7366   78.1912   10.8014 C.3     1  UNL1        0.0001
     39 C          62.5599   78.5904   12.2365 C.3     1  UNL1        0.0017
     40 C          62.4936   80.0420   12.6085 C.3     1  UNL1        0.0196
@<TRIPOS>BOND
     1     1     2    1
     2     2     3    2
     3     3     4    1
     4     4    31    1
     5    31    32    2
     6    31    33   am
     7    33    35    1
     8    35    36    1
     9    36    37    1
    10    37    38    1
    11    38    39    1
    12    39    40    1
    13     4     5    2
    14     5     6    1
    15     6     7    2
    16     7     8    1
    17     8    11    1
    18    11    12    1
    19    12    18    1
    20    18    20    1
    21    20    21    1
    22    21    22    1
    23    21    24    1
    24    24    25   ar
    25    25    26   ar
    26    26    27   ar
    27    27    28   ar
    28    28    29    1
    29    28    30   ar
    30    12    13    2
    31    13    14    1
    32    14    15    2
    33    15    16    1
    34    16    17    2
    35     8     9    2
    36     9    10    1
    37    10     2    1
    38    40    35    1
    39    10     6    1
    40    16    11    1
    41    30    24   ar
    42    33    34    1
    43    18    19    1
    44    22    23    1
@<TRIPOS>MOLECULE
*****
 40 44 0 0 0
SMALL
GASTEIGER

@<TRIPOS>ATOM
      1 C          63.9142   86.3544   14.7994 C.3     1  UNL1        0.0312
      2 C          64.0092   87.6956   14.1346 C.2     1  UNL1        0.0125
      3 C          64.7901   88.8003   14.7827 C.2     1  UNL1        0.0007
      4 C          64.8851   90.1415   14.1179 C.2     1  UNL1        0.0564
      5 C          64.1993   90.3782   12.8050 C.2     1  UNL1        0.0513
      6 C          63.4185   89.2735   12.1569 C.2     1  UNL1        0.2235
      7 N          62.6426   89.2114   10.8747 N.2     1  UNL1       -0.0378
      8 C          62.0680   87.8318   10.7471 C.2     1  UNL1        0.3605
      9 N          62.4888   87.0412   11.9504 N.2     1  UNL1       -0.0547
     10 C          63.3235   87.9323   12.8217 C.3     1  UNL1        0.2975
     11 C          61.2212   87.3306    9.6149 C.3     1  UNL1        0.2246
     12 C          61.6127   86.0824    8.8810 C.2     1  UNL1        0.0436
     13 C          60.7658   85.5813    7.7488 C.2     1  UNL1        0.0288
     14 C          59.5276   86.3283    7.3505 C.2     1  UNL1        0.0896
     15 N          59.1361   87.5766    8.0844 N.am    1  UNL1       -0.1770
     16 C          59.9830   88.0777    9.2166 C.2     1  UNL1        0.2627
     17 O          59.5915   89.3259    9.9506 O.2     1  UNL1       -0.2719
     18 N          62.8509   85.3353    9.2791 N.pl3   1  UNL1       -0.3329
     19 H          63.7158   85.8035    9.3221 H       1  UNL1        0.1466
     20 C          62.7713   83.8748    9.6118 C.3     1  UNL1        0.1211
     21 C          63.6753   83.2936   10.6582 C.3     1  UNL1        0.1522
     22 O          65.1631   83.3361   10.4716 O.3     1  UNL1       -0.3783
     23 H          65.3710   83.7694    9.6290 H       1  UNL1        0.2109
     24 C          63.0916   82.6699   11.8912 C.ar    1  UNL1        0.0067
     25 C          62.7536   81.2086   11.9045 C.ar    1  UNL1       -0.0018
     26 C          62.1699   80.5849   13.1375 C.ar    1  UNL1        0.0006
     27 C          61.9242   81.4226   14.3573 C.ar    1  UNL1        0.0114
     28 C          62.2622   82.8839   14.3440 C.ar    1  UNL1        0.0574
     29 CL         62.0164   83.7216   15.5638 Cl      1  UNL1       -0.0823
     30 C          62.8459   83.5076   13.1110 C.ar    1  UNL1        0.0095
     31 C          65.6660   91.2462   14.7661 C.2     1  UNL1        0.2459
     32 O          64.9712   92.2334   15.6564 O.2     1  UNL1       -0.2701
     33 N          67.1417   91.3636   14.5239 N.am    1  UNL1       -0.3025
     34 H          67.5977   90.7156   13.9396 H       1  UNL1        0.1497
     35 C          67.9226   92.4682   15.1720 C.3     1  UNL1        0.0719
     36 C          69.0572   92.1417   16.0973 C.3     1  UNL1        0.0196
     37 C          69.8380   93.2465   16.7453 C.3     1  UNL1        0.0017
     38 C          69.4842   94.6776   16.4681 C.3     1  UNL1        0.0001
     39 C          68.3496   95.0040   15.5428 C.3     1  UNL1        0.0017
     40 C          67.5688   93.8993   14.8948 C.3     1  UNL1        0.0196
@<TRIPOS>BOND
     1     1     2    1
     2     2     3    2
     3     3     4    1
     4     4    31    1
     5    31    32    2
     6    31    33   am
     7    33    35    1
     8    35    36    1
     9    36    37    1
    10    37    38    1
    11    38    39    1
    12    39    40    1
    13     4     5    2
    14     5     6    1
    15     6     7    2
    16     7     8    1
    17     8    11    1
    18    11    12    1
    19    12    18    1
    20    18    20    1
    21    20    21    1
    22    21    22    1
    23    21    24    1
    24    24    25   ar
    25    25    26   ar
    26    26    27   ar
    27    27    28   ar
    28    28    29    1
    29    28    30   ar
    30    12    13    2
    31    13    14    1
    32    14    15    2
    33    15    16    1
    34    16    17    2
    35     8     9    2
    36     9    10    1
    37    10     2    1
    38    40    35    1
    39    10     6    1
    40    16    11    1
    41    30    24   ar
    42    33    34    1
    43    18    19    1
    44    22    23    1
@<TRIPOS>MOLECULE
*****
 40 44 0 0 0
SMALL
GASTEIGER

@<TRIPOS>ATOM
      1 C          59.6224   88.9773   12.4215 C.3     1  UNL1        0.0312
      2 C          60.0966   88.4336   11.1064 C.2     1  UNL1        0.0125
      3 C          59.6908   89.1041    9.8274 C.2     1  UNL1        0.0007
      4 C          60.1650   88.5605    8.5123 C.2     1  UNL1        0.0564
      5 C          61.0452   87.3464    8.4761 C.2     1  UNL1        0.0513
      6 C          61.4511   86.6759    9.7551 C.2     1  UNL1        0.2235
      7 N          62.3038   85.4732   10.0310 N.2     1  UNL1       -0.0378
      8 C          62.3565   85.2734   11.5167 C.2     1  UNL1        0.3605
      9 N          61.5364   86.3528   12.1590 N.2     1  UNL1       -0.0547
     10 C          60.9768   87.2196   11.0702 C.3     1  UNL1        0.2975
     11 C          63.0990   84.1854   12.2343 C.3     1  UNL1        0.2246
     12 C          63.5423   84.3893   13.6527 C.2     1  UNL1        0.0436
     13 C          64.2848   83.3012   14.3701 C.2     1  UNL1        0.0288
     14 C          64.5841   82.0092   13.6693 C.2     1  UNL1        0.0896
     15 N          64.1408   81.8053   12.2508 N.am    1  UNL1       -0.1770
     16 C          63.3983   82.8934   11.5334 C.2     1  UNL1        0.2627
     17 O          62.9551   82.6895   10.1149 O.2     1  UNL1       -0.2719
     18 N          63.2431   85.6812   14.3536 N.pl3   1  UNL1       -0.3329
     19 H          62.3493   85.8387   14.7352 H       1  UNL1        0.1466
     20 C          64.3056   86.7332   14.4733 C.3     1  UNL1        0.1211
     21 C          63.9530   88.1014   14.9769 C.3     1  UNL1        0.1522
     22 O          63.3971   88.2714   16.3597 O.3     1  UNL1       -0.3783
     23 H          63.3299   87.4046   16.7900 H       1  UNL1        0.2109
     24 C          64.1562   89.2997   14.0978 C.ar    1  UNL1        0.0067
     25 C          65.1276   90.3693   14.5005 C.ar    1  UNL1       -0.0018
     26 C          65.3308   91.5676   13.6214 C.ar    1  UNL1        0.0006
     27 C          64.5627   91.6962   12.3394 C.ar    1  UNL1        0.0114
     28 C          63.5913   90.6265   11.9367 C.ar    1  UNL1        0.0574
     29 CL         62.8232   90.7551   10.6547 Cl      1  UNL1       -0.0823
     30 C          63.3881   89.4283   12.8158 C.ar    1  UNL1        0.0095
     31 C          59.7591   89.2310    7.2333 C.2     1  UNL1        0.2459
     32 O          58.5704   88.7296    6.4681 O.2     1  UNL1       -0.2701
     33 N          60.5419   90.4029    6.7196 N.am    1  UNL1       -0.3025
     34 H          61.3221   90.7320    7.2219 H       1  UNL1        0.1497
     35 C          60.1360   91.0734    5.4407 C.3     1  UNL1        0.0719
     36 C          58.6925   91.3916    5.1860 C.3     1  UNL1        0.0196
     37 C          58.2867   92.0621    3.9069 C.3     1  UNL1        0.0017
     38 C          59.3244   92.4144    2.8827 C.3     1  UNL1        0.0001
     39 C          60.7680   92.0962    3.1375 C.3     1  UNL1        0.0017
     40 C          61.1737   91.4257    4.4165 C.3     1  UNL1        0.0196
@<TRIPOS>BOND
     1     1     2    1
     2     2     3    2
     3     3     4    1
     4     4    31    1
     5    31    32    2
     6    31    33   am
     7    33    35    1
     8    35    36    1
     9    36    37    1
    10    37    38    1
    11    38    39    1
    12    39    40    1
    13     4     5    2
    14     5     6    1
    15     6     7    2
    16     7     8    1
    17     8    11    1
    18    11    12    1
    19    12    18    1
    20    18    20    1
    21    20    21    1
    22    21    22    1
    23    21    24    1
    24    24    25   ar
    25    25    26   ar
    26    26    27   ar
    27    27    28   ar
    28    28    29    1
    29    28    30   ar
    30    12    13    2
    31    13    14    1
    32    14    15    2
    33    15    16    1
    34    16    17    2
    35     8     9    2
    36     9    10    1
    37    10     2    1
    38    40    35    1
    39    10     6    1
    40    16    11    1
    41    30    24   ar
    42    33    34    1
    43    18    19    1
    44    22    23    1
@<TRIPOS>MOLECULE
*****
 40 44 0 0 0
SMALL
GASTEIGER

@<TRIPOS>ATOM
      1 C          56.0510   90.8023    5.4499 C.3     1  UNL1        0.0312
      2 C          57.4909   91.0532    5.1126 C.2     1  UNL1        0.0125
      3 C          57.8471   91.9644    3.9755 C.2     1  UNL1        0.0007
      4 C          59.2869   92.2153    3.6383 C.2     1  UNL1        0.0564
      5 C          60.3707   91.5551    4.4380 C.2     1  UNL1        0.0513
      6 C          60.0145   90.6439    5.5751 C.2     1  UNL1        0.2235
      7 N          60.8590   89.8586    6.5343 N.2     1  UNL1       -0.0378
      8 C          59.9410   89.1223    7.4645 C.2     1  UNL1        0.3605
      9 N          58.5292   89.4526    7.0801 N.2     1  UNL1       -0.0547
     10 C          58.5746   90.3930    5.9124 C.3     1  UNL1        0.2975
     11 C          60.3610   88.2151    8.5827 C.3     1  UNL1        0.2246
     12 C          60.9832   88.7893    9.8209 C.2     1  UNL1        0.0436
     13 C          61.4032   87.8819   10.9391 C.2     1  UNL1        0.0288
     14 C          61.2010   86.4004   10.8192 C.2     1  UNL1        0.0896
     15 N          60.5788   85.8263    9.5810 N.am    1  UNL1       -0.1770
     16 C          60.1588   86.7336    8.4628 C.2     1  UNL1        0.2627
     17 O          59.5365   86.1595    7.2246 O.2     1  UNL1       -0.2719
     18 N          61.1855   90.2707    9.9409 N.pl3   1  UNL1       -0.3329
     19 H          60.4273   90.8836    9.8044 H       1  UNL1        0.1466
     20 C          62.5429   90.8182   10.2690 C.3     1  UNL1        0.1211
     21 C          62.9832   90.9244   11.6990 C.3     1  UNL1        0.1522
     22 O          62.0713   90.4706   12.8002 O.3     1  UNL1       -0.3783
     23 H          61.2438   90.1384   12.4185 H       1  UNL1        0.2109
     24 C          64.3354   91.4842   12.0278 C.ar    1  UNL1        0.0067
     25 C          65.0886   92.2773   11.0013 C.ar    1  UNL1       -0.0018
     26 C          66.4408   92.8371   11.3300 C.ar    1  UNL1        0.0006
     27 C          67.0398   92.6040   12.6854 C.ar    1  UNL1        0.0114
     28 C          66.2866   91.8110   13.7118 C.ar    1  UNL1        0.0574
     29 CL         66.8856   91.5779   15.0671 Cl      1  UNL1       -0.0823
     30 C          64.9344   91.2511   13.3831 C.ar    1  UNL1        0.0095
     31 C          59.6431   93.1265    2.5011 C.2     1  UNL1        0.2459
     32 O          60.1209   94.5210    2.7789 O.2     1  UNL1       -0.2701
     33 N          59.5215   92.6432    1.0864 N.am    1  UNL1       -0.3025
     34 H          59.2079   91.7280    0.9041 H       1  UNL1        0.1497
     35 C          59.8777   93.5543   -0.0507 C.3     1  UNL1        0.0719
     36 C          61.1977   93.4040   -0.7471 C.3     1  UNL1        0.0196
     37 C          61.5538   94.3152   -1.8842 C.3     1  UNL1        0.0017
     38 C          60.5900   95.3767   -2.3249 C.3     1  UNL1        0.0001
     39 C          59.2699   95.5270   -1.6284 C.3     1  UNL1        0.0017
     40 C          58.9139   94.6159   -0.4914 C.3     1  UNL1        0.0196
@<TRIPOS>BOND
     1     1     2    1
     2     2     3    2
     3     3     4    1
     4     4    31    1
     5    31    32    2
     6    31    33   am
     7    33    35    1
     8    35    36    1
     9    36    37    1
    10    37    38    1
    11    38    39    1
    12    39    40    1
    13     4     5    2
    14     5     6    1
    15     6     7    2
    16     7     8    1
    17     8    11    1
    18    11    12    1
    19    12    18    1
    20    18    20    1
    21    20    21    1
    22    21    22    1
    23    21    24    1
    24    24    25   ar
    25    25    26   ar
    26    26    27   ar
    27    27    28   ar
    28    28    29    1
    29    28    30   ar
    30    12    13    2
    31    13    14    1
    32    14    15    2
    33    15    16    1
    34    16    17    2
    35     8     9    2
    36     9    10    1
    37    10     2    1
    38    40    35    1
    39    10     6    1
    40    16    11    1
    41    30    24   ar
    42    33    34    1
    43    18    19    1
    44    22    23    1
