@<TRIPOS>MOLECULE
*****
 26 29 0 0 0
SMALL
GASTEIGER

@<TRIPOS>ATOM
      1 C          65.9234   93.4826   12.1161 C.2     1  UNL1        0.0919
      2 C          66.4604   93.9240   13.4452 C.2     1  UNL1        0.0183
      3 C          66.2503   93.0698   14.6602 C.2     1  UNL1        0.0511
      4 C          65.5032   91.7741   14.5460 C.2     1  UNL1        0.2322
      5 N          65.1435   90.7300   15.5611 N.2     1  UNL1       -0.0295
      6 C          64.3842   89.6433   14.8593 C.2     1  UNL1        0.3932
      7 N          64.2746   90.0157   13.4104 N.2     1  UNL1       -0.0333
      8 C          64.9662   91.3327   13.2168 C.2     1  UNL1        0.2192
      9 C          65.1763   92.1869   12.0018 C.3     1  UNL1        0.1226
     10 C          63.8315   88.4020   15.4949 C.ar    1  UNL1        0.1694
     11 C          63.2226   88.4679   16.8641 C.ar    1  UNL1        0.0270
     12 C          62.6700   87.2267   17.4997 C.ar    1  UNL1        0.0033
     13 C          62.7262   85.9196   16.7660 C.ar    1  UNL1        0.0192
     14 C          63.3351   85.8537   15.3967 C.ar    1  UNL1        0.0815
     15 N          63.8878   87.0949   14.7612 N.ar    1  UNL1       -0.2376
     16 C          63.3914   84.5466   14.6630 C.ar    1  UNL1        0.0177
     17 C          62.4480   83.4395   15.0296 C.ar    1  UNL1        0.0015
     18 C          62.5043   82.1325   14.2959 C.ar    1  UNL1        0.0000
     19 C          63.5039   81.9324   13.1956 C.ar    1  UNL1        0.0000
     20 C          64.4473   83.0395   12.8290 C.ar    1  UNL1        0.0000
     21 C          64.3910   84.3465   13.5627 C.ar    1  UNL1        0.0015
     22 S          66.1336   94.3368   10.9011 S.O2    1  UNL1        0.0054
     23 O          66.1682   93.1072   10.0426 O.2     1  UNL1       -0.1689
     24 O          66.0989   95.5663   11.7596 O.2     1  UNL1       -0.1689
     25 C          67.6348   95.1106    8.9269 C.3     1  UNL1        0.0276
     26 C          66.3437   95.1910    9.6861 C.3     1  UNL1        0.1556
@<TRIPOS>BOND
     1    25    26    1
     2    26    22    1
     3    22    23    2
     4    22    24    2
     5    22     1    1
     6     1     2    2
     7     2     3    1
     8     3     4    2
     9     4     5    1
    10     5     6    2
    11     6    10    1
    12    10    11   ar
    13    11    12   ar
    14    12    13   ar
    15    13    14   ar
    16    14    16    1
    17    16    17   ar
    18    17    18   ar
    19    18    19   ar
    20    19    20   ar
    21    20    21   ar
    22    14    15   ar
    23     6     7    1
    24     7     8    2
    25     8     9    1
    26     9     1    1
    27     8     4    1
    28    15    10   ar
    29    21    16   ar
@<TRIPOS>MOLECULE
*****
 26 29 0 0 0
SMALL
GASTEIGER

@<TRIPOS>ATOM
      1 C          65.0812   91.1839   13.8115 C.2     1  UNL1        0.0919
      2 C          64.9151   89.8647   14.5058 C.2     1  UNL1        0.0183
      3 C          64.0214   88.8141   13.9161 C.2     1  UNL1        0.0511
      4 C          63.2939   89.0828   12.6322 C.2     1  UNL1        0.2322
      5 N          62.3524   88.2458   11.8179 N.2     1  UNL1       -0.0295
      6 C          61.9366   89.0477   10.6204 C.2     1  UNL1        0.3932
      7 N          62.6212   90.3804   10.6945 N.2     1  UNL1       -0.0333
      8 C          63.4600   90.4020   11.9379 C.2     1  UNL1        0.2192
      9 C          64.3537   91.4526   12.5276 C.3     1  UNL1        0.1226
     10 C          61.0006   88.5963    9.5386 C.ar    1  UNL1        0.1694
     11 C          60.4907   87.1856    9.5286 C.ar    1  UNL1        0.0270
     12 C          59.5548   86.7341    8.4469 C.ar    1  UNL1        0.0033
     13 C          59.1287   87.6933    7.3753 C.ar    1  UNL1        0.0192
     14 C          59.6385   89.1039    7.3853 C.ar    1  UNL1        0.0815
     15 N          60.5745   89.5554    8.4670 N.ar    1  UNL1       -0.2376
     16 C          59.2124   90.0631    6.3136 C.ar    1  UNL1        0.0177
     17 C          60.2447   90.7772    5.4925 C.ar    1  UNL1        0.0015
     18 C          59.8186   91.7363    4.4209 C.ar    1  UNL1        0.0000
     19 C          58.3600   91.9813    4.1704 C.ar    1  UNL1        0.0000
     20 C          57.3277   91.2672    4.9915 C.ar    1  UNL1        0.0000
     21 C          57.7539   90.3081    6.0631 C.ar    1  UNL1        0.0015
     22 S          65.9748   92.2345   14.4012 S.O2    1  UNL1        0.0054
     23 O          66.8812   92.1319   13.2104 O.2     1  UNL1       -0.1689
     24 O          65.0685   92.3371   15.5920 O.2     1  UNL1       -0.1689
     25 C          68.0160   92.8860   15.8706 C.3     1  UNL1        0.0276
     26 C          66.8685   93.2850   14.9909 C.3     1  UNL1        0.1556
@<TRIPOS>BOND
     1    25    26    1
     2    26    22    1
     3    22    23    2
     4    22    24    2
     5    22     1    1
     6     1     2    2
     7     2     3    1
     8     3     4    2
     9     4     5    1
    10     5     6    2
    11     6    10    1
    12    10    11   ar
    13    11    12   ar
    14    12    13   ar
    15    13    14   ar
    16    14    16    1
    17    16    17   ar
    18    17    18   ar
    19    18    19   ar
    20    19    20   ar
    21    20    21   ar
    22    14    15   ar
    23     6     7    1
    24     7     8    2
    25     8     9    1
    26     9     1    1
    27     8     4    1
    28    15    10   ar
    29    21    16   ar
@<TRIPOS>MOLECULE
*****
 26 29 0 0 0
SMALL
GASTEIGER

@<TRIPOS>ATOM
      1 C          65.7806   94.1801   11.5022 C.2     1  UNL1        0.0919
      2 C          66.1077   93.7593   12.9043 C.2     1  UNL1        0.0183
      3 C          65.5980   92.4515   13.4331 C.2     1  UNL1        0.0511
      4 C          64.7612   91.5644   12.5598 C.2     1  UNL1        0.2322
      5 N          64.1228   90.2291   12.8039 N.2     1  UNL1       -0.0295
      6 C          63.4012   89.8246   11.5527 C.2     1  UNL1        0.3932
      7 N          63.5935   90.9098   10.5352 N.2     1  UNL1       -0.0333
      8 C          64.4340   91.9851   11.1578 C.2     1  UNL1        0.2192
      9 C          64.9438   93.2930   10.6289 C.3     1  UNL1        0.1226
     10 C          62.6237   88.5573   11.3538 C.ar    1  UNL1        0.1694
     11 C          61.3716   88.5673   10.5279 C.ar    1  UNL1        0.0270
     12 C          60.5941   87.3001   10.3290 C.ar    1  UNL1        0.0033
     13 C          61.0687   86.0228   10.9561 C.ar    1  UNL1        0.0192
     14 C          62.3208   86.0127   11.7820 C.ar    1  UNL1        0.0815
     15 N          63.0983   87.2800   11.9809 N.ar    1  UNL1       -0.2376
     16 C          62.7954   84.7354   12.4091 C.ar    1  UNL1        0.0177
     17 C          63.4657   84.7623   13.7507 C.ar    1  UNL1        0.0015
     18 C          63.9403   83.4850   14.3777 C.ar    1  UNL1        0.0000
     19 C          63.7445   82.1807   13.6631 C.ar    1  UNL1        0.0000
     20 C          63.0742   82.1538   12.3215 C.ar    1  UNL1        0.0000
     21 C          62.5997   83.4311   11.6945 C.ar    1  UNL1        0.0015
     22 S          66.2904   95.4879   10.9734 S.O2    1  UNL1        0.0054
     23 O          66.2222   96.0724   12.3531 O.2     1  UNL1       -0.1689
     24 O          66.3586   94.9035    9.5936 O.2     1  UNL1       -0.1689
     25 C          67.5052   96.8462    9.1216 C.3     1  UNL1        0.0276
     26 C          66.8001   96.7958   10.4445 C.3     1  UNL1        0.1556
@<TRIPOS>BOND
     1    25    26    1
     2    26    22    1
     3    22    23    2
     4    22    24    2
     5    22     1    1
     6     1     2    2
     7     2     3    1
     8     3     4    2
     9     4     5    1
    10     5     6    2
    11     6    10    1
    12    10    11   ar
    13    11    12   ar
    14    12    13   ar
    15    13    14   ar
    16    14    16    1
    17    16    17   ar
    18    17    18   ar
    19    18    19   ar
    20    19    20   ar
    21    20    21   ar
    22    14    15   ar
    23     6     7    1
    24     7     8    2
    25     8     9    1
    26     9     1    1
    27     8     4    1
    28    15    10   ar
    29    21    16   ar
@<TRIPOS>MOLECULE
*****
 26 29 0 0 0
SMALL
GASTEIGER

@<TRIPOS>ATOM
      1 C          63.4551   82.2591   12.3031 C.2     1  UNL1        0.0919
      2 C          63.7920   81.7829   13.6850 C.2     1  UNL1        0.0183
      3 C          64.0025   82.7753   14.7898 C.2     1  UNL1        0.0511
      4 C          63.8760   84.2441   14.5128 C.2     1  UNL1        0.2322
      5 N          64.0263   85.4484   15.3943 N.2     1  UNL1       -0.0295
      6 C          63.7822   86.6689   14.5572 C.2     1  UNL1        0.3932
      7 N          63.4811   86.2190   13.1584 N.2     1  UNL1       -0.0333
      8 C          63.5391   84.7203   13.1309 C.2     1  UNL1        0.2192
      9 C          63.3286   83.7278   12.0261 C.3     1  UNL1        0.1226
     10 C          63.8308   88.0900   15.0352 C.ar    1  UNL1        0.1694
     11 C          63.2796   88.4469   16.3839 C.ar    1  UNL1        0.0270
     12 C          63.3282   89.8678   16.8618 C.ar    1  UNL1        0.0033
     13 C          63.9278   90.9319   15.9912 C.ar    1  UNL1        0.0192
     14 C          64.4789   90.5750   14.6425 C.ar    1  UNL1        0.0815
     15 N          64.4304   89.1540   14.1645 N.ar    1  UNL1       -0.2376
     16 C          65.0786   91.6391   13.7718 C.ar    1  UNL1        0.0177
     17 C          66.0300   92.6398   14.3579 C.ar    1  UNL1        0.0015
     18 C          66.6296   93.7038   13.4872 C.ar    1  UNL1        0.0000
     19 C          66.2778   93.7673   12.0304 C.ar    1  UNL1        0.0000
     20 C          65.3264   92.7667   11.4443 C.ar    1  UNL1        0.0000
     21 C          64.7268   91.7026   12.3150 C.ar    1  UNL1        0.0015
     22 S          63.2446   81.2666   11.1983 S.O2    1  UNL1        0.0054
     23 O          62.7394   80.2651   12.1942 O.2     1  UNL1       -0.1689
     24 O          63.7497   82.2681   10.2024 O.2     1  UNL1       -0.1689
     25 C          62.7809   78.8320   10.4189 C.3     1  UNL1        0.0276
     26 C          63.0341   80.2741   10.0934 C.3     1  UNL1        0.1556
@<TRIPOS>BOND
     1    25    26    1
     2    26    22    1
     3    22    23    2
     4    22    24    2
     5    22     1    1
     6     1     2    2
     7     2     3    1
     8     3     4    2
     9     4     5    1
    10     5     6    2
    11     6    10    1
    12    10    11   ar
    13    11    12   ar
    14    12    13   ar
    15    13    14   ar
    16    14    16    1
    17    16    17   ar
    18    17    18   ar
    19    18    19   ar
    20    19    20   ar
    21    20    21   ar
    22    14    15   ar
    23     6     7    1
    24     7     8    2
    25     8     9    1
    26     9     1    1
    27     8     4    1
    28    15    10   ar
    29    21    16   ar
@<TRIPOS>MOLECULE
*****
 26 29 0 0 0
SMALL
GASTEIGER

@<TRIPOS>ATOM
      1 C          66.3935   92.1014   14.9698 C.2     1  UNL1        0.0919
      2 C          65.4865   91.9045   16.1482 C.2     1  UNL1        0.0183
      3 C          64.1494   91.2500   15.9643 C.2     1  UNL1        0.0511
      4 C          63.7193   90.7924   14.6022 C.2     1  UNL1        0.2322
      5 N          62.4686   90.1210   14.1173 N.2     1  UNL1       -0.0295
      6 C          62.6027   89.9029   12.6393 C.2     1  UNL1        0.3932
      7 N          63.9361   90.4396   12.2107 N.2     1  UNL1       -0.0333
      8 C          64.6262   90.9893   13.4238 C.2     1  UNL1        0.2192
      9 C          65.9634   91.6438   13.6076 C.3     1  UNL1        0.1226
     10 C          61.5823   89.2609   11.7467 C.ar    1  UNL1        0.1694
     11 C          60.1372   89.6463   11.8611 C.ar    1  UNL1        0.0270
     12 C          59.1168   89.0043   10.9686 C.ar    1  UNL1        0.0033
     13 C          59.5416   87.9769    9.9616 C.ar    1  UNL1        0.0192
     14 C          60.9867   87.5915    9.8472 C.ar    1  UNL1        0.0815
     15 N          62.0070   88.2335   10.7398 N.ar    1  UNL1       -0.2376
     16 C          61.4114   86.5641    8.8402 C.ar    1  UNL1        0.0177
     17 C          62.7732   85.9419    8.9321 C.ar    1  UNL1        0.0015
     18 C          63.1979   84.9145    7.9252 C.ar    1  UNL1        0.0000
     19 C          62.2608   84.5093    6.8262 C.ar    1  UNL1        0.0000
     20 C          60.8990   85.1315    6.7343 C.ar    1  UNL1        0.0000
     21 C          60.4744   86.1588    7.7412 C.ar    1  UNL1        0.0015
     22 S          67.7306   92.7558   15.1536 S.O2    1  UNL1        0.0054
     23 O          68.1785   92.2129   13.8290 O.2     1  UNL1       -0.1689
     24 O          67.2828   93.2988   16.4783 O.2     1  UNL1       -0.1689
     25 C          69.2090   94.5799   16.2658 C.3     1  UNL1        0.0276
     26 C          69.0678   93.4103   15.3375 C.3     1  UNL1        0.1556
@<TRIPOS>BOND
     1    25    26    1
     2    26    22    1
     3    22    23    2
     4    22    24    2
     5    22     1    1
     6     1     2    2
     7     2     3    1
     8     3     4    2
     9     4     5    1
    10     5     6    2
    11     6    10    1
    12    10    11   ar
    13    11    12   ar
    14    12    13   ar
    15    13    14   ar
    16    14    16    1
    17    16    17   ar
    18    17    18   ar
    19    18    19   ar
    20    19    20   ar
    21    20    21   ar
    22    14    15   ar
    23     6     7    1
    24     7     8    2
    25     8     9    1
    26     9     1    1
    27     8     4    1
    28    15    10   ar
    29    21    16   ar
@<TRIPOS>MOLECULE
*****
 26 29 0 0 0
SMALL
GASTEIGER

@<TRIPOS>ATOM
      1 C          62.7691   84.2560   13.3516 C.2     1  UNL1        0.0919
      2 C          62.1873   84.7426   12.0575 C.2     1  UNL1        0.0183
      3 C          62.3643   86.1744   11.6469 C.2     1  UNL1        0.0511
      4 C          63.1231   87.1197   12.5304 C.2     1  UNL1        0.2322
      5 N          63.4572   88.5752   12.3902 N.2     1  UNL1       -0.0295
      6 C          64.2456   88.9883   13.5976 C.2     1  UNL1        0.3932
      7 N          64.3987   87.7880   14.4841 N.2     1  UNL1       -0.0333
      8 C          63.7050   86.6331   13.8244 C.2     1  UNL1        0.2192
      9 C          63.5280   85.2013   14.2350 C.3     1  UNL1        0.1226
     10 C          64.7859   90.3607   13.8707 C.ar    1  UNL1        0.1694
     11 C          64.8376   90.8804   15.2768 C.ar    1  UNL1        0.0270
     12 C          65.3779   92.2527   15.5499 C.ar    1  UNL1        0.0033
     13 C          65.8666   93.1055   14.4168 C.ar    1  UNL1        0.0192
     14 C          65.8149   92.5859   13.0106 C.ar    1  UNL1        0.0815
     15 N          65.2746   91.2135   12.7375 N.ar    1  UNL1       -0.2376
     16 C          66.3036   93.4387   11.8774 C.ar    1  UNL1        0.0177
     17 C          66.1410   94.9287   11.9359 C.ar    1  UNL1        0.0015
     18 C          66.6297   95.7814   10.8028 C.ar    1  UNL1        0.0000
     19 C          67.2810   95.1442    9.6112 C.ar    1  UNL1        0.0000
     20 C          67.4435   93.6542    9.5528 C.ar    1  UNL1        0.0000
     21 C          66.9548   92.8014   10.6859 C.ar    1  UNL1        0.0015
     22 S          62.5921   82.8242   13.7621 S.O2    1  UNL1        0.0054
     23 O          62.7791   83.2131   15.1988 O.2     1  UNL1       -0.1689
     24 O          62.4051   82.4354   12.3255 O.2     1  UNL1       -0.1689
     25 C          61.0587   80.7555   14.1070 C.3     1  UNL1        0.0276
     26 C          62.4151   81.3924   14.1727 C.3     1  UNL1        0.1556
@<TRIPOS>BOND
     1    25    26    1
     2    26    22    1
     3    22    23    2
     4    22    24    2
     5    22     1    1
     6     1     2    2
     7     2     3    1
     8     3     4    2
     9     4     5    1
    10     5     6    2
    11     6    10    1
    12    10    11   ar
    13    11    12   ar
    14    12    13   ar
    15    13    14   ar
    16    14    16    1
    17    16    17   ar
    18    17    18   ar
    19    18    19   ar
    20    19    20   ar
    21    20    21   ar
    22    14    15   ar
    23     6     7    1
    24     7     8    2
    25     8     9    1
    26     9     1    1
    27     8     4    1
    28    15    10   ar
    29    21    16   ar
@<TRIPOS>MOLECULE
*****
 26 29 0 0 0
SMALL
GASTEIGER

@<TRIPOS>ATOM
      1 C          62.9885   81.9127   12.4299 C.2     1  UNL1        0.0919
      2 C          63.4391   82.1494   13.8409 C.2     1  UNL1        0.0183
      3 C          63.6280   83.5502   14.3428 C.2     1  UNL1        0.0511
      4 C          63.3664   84.7143   13.4339 C.2     1  UNL1        0.2322
      5 N          63.4657   86.1959   13.6464 N.2     1  UNL1       -0.0295
      6 C          63.0764   86.8749   12.3667 C.2     1  UNL1        0.3932
      7 N          62.7365   85.8130   11.3633 N.2     1  UNL1       -0.0333
      8 C          62.9157   84.4777   12.0229 C.2     1  UNL1        0.2192
      9 C          62.7268   83.0768   11.5209 C.3     1  UNL1        0.1226
     10 C          63.0344   88.3558   12.1318 C.ar    1  UNL1        0.1694
     11 C          62.0389   88.9347   11.1706 C.ar    1  UNL1        0.0270
     12 C          61.9969   90.4156   10.9356 C.ar    1  UNL1        0.0033
     13 C          62.9504   91.3175   11.6618 C.ar    1  UNL1        0.0192
     14 C          63.9459   90.7386   12.6229 C.ar    1  UNL1        0.0815
     15 N          63.9879   89.2577   12.8579 N.ar    1  UNL1       -0.2376
     16 C          64.8994   91.6406   13.3491 C.ar    1  UNL1        0.0177
     17 C          65.1666   91.4293   14.8099 C.ar    1  UNL1        0.0015
     18 C          66.1201   92.3313   15.5360 C.ar    1  UNL1        0.0000
     19 C          66.8063   93.4446   14.8013 C.ar    1  UNL1        0.0000
     20 C          66.5391   93.6558   13.3406 C.ar    1  UNL1        0.0000
     21 C          65.5856   92.7538   12.6145 C.ar    1  UNL1        0.0015
     22 S          62.7995   80.5119   11.9279 S.O2    1  UNL1        0.0054
     23 O          62.4655   80.0587   13.3182 O.2     1  UNL1       -0.1689
     24 O          63.1335   80.9651   10.5375 O.2     1  UNL1       -0.1689
     25 C          62.7747   78.8090    9.9659 C.3     1  UNL1        0.0276
     26 C          62.6106   79.1111   11.4259 C.3     1  UNL1        0.1556
@<TRIPOS>BOND
     1    25    26    1
     2    26    22    1
     3    22    23    2
     4    22    24    2
     5    22     1    1
     6     1     2    2
     7     2     3    1
     8     3     4    2
     9     4     5    1
    10     5     6    2
    11     6    10    1
    12    10    11   ar
    13    11    12   ar
    14    12    13   ar
    15    13    14   ar
    16    14    16    1
    17    16    17   ar
    18    17    18   ar
    19    18    19   ar
    20    19    20   ar
    21    20    21   ar
    22    14    15   ar
    23     6     7    1
    24     7     8    2
    25     8     9    1
    26     9     1    1
    27     8     4    1
    28    15    10   ar
    29    21    16   ar
@<TRIPOS>MOLECULE
*****
 26 29 0 0 0
SMALL
GASTEIGER

@<TRIPOS>ATOM
      1 C          61.0455   86.9266    8.6933 C.2     1  UNL1        0.0919
      2 C          60.1783   88.1435    8.5626 C.2     1  UNL1        0.0183
      3 C          60.2735   89.2447    9.5766 C.2     1  UNL1        0.0511
      4 C          61.2359   89.1291   10.7213 C.2     1  UNL1        0.2322
      5 N          61.5486   90.0463   11.8663 N.2     1  UNL1       -0.0295
      6 C          62.6092   89.3962   12.7046 C.2     1  UNL1        0.3932
      7 N          62.9518   88.0773   12.0778 N.2     1  UNL1       -0.0333
      8 C          62.1031   87.9122   10.8520 C.2     1  UNL1        0.2192
      9 C          62.0079   86.8110    9.8380 C.3     1  UNL1        0.1226
     10 C          63.2198   89.9653   13.9510 C.ar    1  UNL1        0.1694
     11 C          62.4861   89.8714   15.2559 C.ar    1  UNL1        0.0270
     12 C          63.0966   90.4404   16.5023 C.ar    1  UNL1        0.0033
     13 C          64.4409   91.1033   16.4437 C.ar    1  UNL1        0.0192
     14 C          65.1746   91.1972   15.1387 C.ar    1  UNL1        0.0815
     15 N          64.5640   90.6282   13.8924 N.ar    1  UNL1       -0.2376
     16 C          66.5189   91.8602   15.0802 C.ar    1  UNL1        0.0177
     17 C          67.4146   91.6365   13.8980 C.ar    1  UNL1        0.0015
     18 C          68.7588   92.2994   13.8395 C.ar    1  UNL1        0.0000
     19 C          69.2074   93.1861   14.9632 C.ar    1  UNL1        0.0000
     20 C          68.3116   93.4098   16.1454 C.ar    1  UNL1        0.0000
     21 C          66.9674   92.7469   16.2039 C.ar    1  UNL1        0.0015
     22 S          60.9503   85.8254    7.6793 S.O2    1  UNL1        0.0054
     23 O          62.3775   85.4520    7.9508 O.2     1  UNL1       -0.1689
     24 O          59.5231   86.1988    7.4077 O.2     1  UNL1       -0.1689
     25 C          62.0655   84.3273    5.8731 C.3     1  UNL1        0.0276
     26 C          60.8551   84.7242    6.6653 C.3     1  UNL1        0.1556
@<TRIPOS>BOND
     1    25    26    1
     2    26    22    1
     3    22    23    2
     4    22    24    2
     5    22     1    1
     6     1     2    2
     7     2     3    1
     8     3     4    2
     9     4     5    1
    10     5     6    2
    11     6    10    1
    12    10    11   ar
    13    11    12   ar
    14    12    13   ar
    15    13    14   ar
    16    14    16    1
    17    16    17   ar
    18    17    18   ar
    19    18    19   ar
    20    19    20   ar
    21    20    21   ar
    22    14    15   ar
    23     6     7    1
    24     7     8    2
    25     8     9    1
    26     9     1    1
    27     8     4    1
    28    15    10   ar
    29    21    16   ar
@<TRIPOS>MOLECULE
*****
 26 29 0 0 0
SMALL
GASTEIGER

@<TRIPOS>ATOM
      1 C          63.9994   94.4104    0.0595 C.2     1  UNL1        0.0919
      2 C          65.0198   93.5383    0.7290 C.2     1  UNL1        0.0183
      3 C          64.6084   92.6222    1.8431 C.2     1  UNL1        0.0511
      4 C          63.1766   92.5781    2.2878 C.2     1  UNL1        0.2322
      5 N          62.4797   91.7814    3.3507 N.2     1  UNL1       -0.0295
      6 C          61.0286   92.1610    3.3381 C.2     1  UNL1        0.3932
      7 N          60.8286   93.1923    2.2674 N.2     1  UNL1       -0.0333
      8 C          62.1561   93.4501    1.6184 C.2     1  UNL1        0.2192
      9 C          62.5676   94.3663    0.5042 C.3     1  UNL1        0.1226
     10 C          59.9643   91.6065    4.2381 C.ar    1  UNL1        0.1694
     11 C          58.5448   92.0694    4.0946 C.ar    1  UNL1        0.0270
     12 C          57.4805   91.5150    4.9946 C.ar    1  UNL1        0.0033
     13 C          57.8359   90.4978    6.0381 C.ar    1  UNL1        0.0192
     14 C          59.2554   90.0350    6.1817 C.ar    1  UNL1        0.0815
     15 N          60.3197   90.5894    5.2817 N.ar    1  UNL1       -0.2376
     16 C          59.6108   89.0177    7.2253 C.ar    1  UNL1        0.0177
     17 C          60.2569   89.4526    8.5072 C.ar    1  UNL1        0.0015
     18 C          60.6121   88.4354    9.5507 C.ar    1  UNL1        0.0000
     19 C          60.3213   86.9833    9.3123 C.ar    1  UNL1        0.0000
     20 C          59.6753   86.5484    8.0303 C.ar    1  UNL1        0.0000
     21 C          59.3200   87.5656    6.9868 C.ar    1  UNL1        0.0015
     22 S          64.4108   95.3265   -1.0547 S.O2    1  UNL1        0.0054
     23 O          63.1011   95.0783   -1.7425 O.2     1  UNL1       -0.1689
     24 O          65.7206   95.5748   -0.3669 O.2     1  UNL1       -0.1689
     25 C          64.8885   95.7289   -3.5766 C.3     1  UNL1        0.0276
     26 C          64.8223   96.2427   -2.1689 C.3     1  UNL1        0.1556
@<TRIPOS>BOND
     1    25    26    1
     2    26    22    1
     3    22    23    2
     4    22    24    2
     5    22     1    1
     6     1     2    2
     7     2     3    1
     8     3     4    2
     9     4     5    1
    10     5     6    2
    11     6    10    1
    12    10    11   ar
    13    11    12   ar
    14    12    13   ar
    15    13    14   ar
    16    14    16    1
    17    16    17   ar
    18    17    18   ar
    19    18    19   ar
    20    19    20   ar
    21    20    21   ar
    22    14    15   ar
    23     6     7    1
    24     7     8    2
    25     8     9    1
    26     9     1    1
    27     8     4    1
    28    15    10   ar
    29    21    16   ar
