@<TRIPOS>MOLECULE
*****
 26 28 0 0 0
SMALL
GASTEIGER

@<TRIPOS>ATOM
      1 N          63.5048   86.0539   14.6234 N.3     1  UNL1       -0.1549
      2 C          64.0554   86.9225   13.5315 C.3     1  UNL1        0.1002
      3 C          64.3337   88.3727   13.7950 C.3     1  UNL1        0.0418
      4 C          64.0612   88.9544   15.1505 C.2     1  UNL1       -0.0331
      5 C          64.3394   90.4046   15.4141 C.2     1  UNL1        0.0412
      6 C          63.5105   88.0858   16.2424 C.3     1  UNL1        0.0418
      7 C          63.2323   86.6356   15.9788 C.3     1  UNL1        0.1002
      8 S          63.2265   84.6037   14.3598 S.O2    1  UNL1        0.0633
      9 O          61.9374   84.7131   15.1189 O.2     1  UNL1       -0.1528
     10 O          64.5157   84.4944   13.6007 O.2     1  UNL1       -0.1528
     11 C          62.1137   78.8029   13.3054 C.3     1  UNL1        0.0310
     12 C          62.3919   80.2531   13.5690 C.ar    1  UNL1       -0.0218
     13 C          63.7241   80.8392   13.2062 C.ar    1  UNL1       -0.0029
     14 C          64.0023   82.2894   13.4698 C.ar    1  UNL1        0.0196
     15 C          62.9483   83.1535   14.0962 C.ar    1  UNL1        0.1222
     16 C          61.6161   82.5674   14.4590 C.ar    1  UNL1        0.0196
     17 C          61.3379   81.1172   14.1954 C.ar    1  UNL1       -0.0029
     18 C          64.8901   91.2731   14.3222 C.1     1  UNL1       -0.0583
     19 C          65.4408   92.1418   13.2302 C.1     1  UNL1       -0.0405
     20 C          65.9915   93.0103   12.1383 C.ar    1  UNL1        0.1224
     21 C          66.7201   92.3908   10.9827 C.ar    1  UNL1        0.0276
     22 C          67.2708   93.2594    9.8908 C.ar    1  UNL1        0.0034
     23 C          67.0929   94.7474    9.9544 C.ar    1  UNL1        0.0148
     24 C          66.3642   95.3669   11.1099 C.ar    1  UNL1        0.0600
     25 C          66.1863   96.8550   11.1736 C.3     1  UNL1        0.0521
     26 N          65.8135   94.4984   12.2019 N.ar    1  UNL1       -0.2414
@<TRIPOS>BOND
     1    11    12    1
     2    12    13   ar
     3    13    14   ar
     4    14    15   ar
     5    15     8    1
     6     8     9    2
     7     8    10    2
     8     8     1    1
     9     1     2    1
    10     2     3    1
    11     3     4    1
    12     4     5    2
    13     5    18    1
    14    18    19    3
    15    19    20    1
    16    20    21   ar
    17    21    22   ar
    18    22    23   ar
    19    23    24   ar
    20    24    25    1
    21    24    26   ar
    22     4     6    1
    23     6     7    1
    24    15    16   ar
    25    16    17   ar
    26    17    12   ar
    27     7     1    1
    28    26    20   ar
@<TRIPOS>MOLECULE
*****
 26 28 0 0 0
SMALL
GASTEIGER

@<TRIPOS>ATOM
      1 N          64.5379   90.6879   14.0352 N.3     1  UNL1       -0.1549
      2 C          64.4139   89.3177   13.4375 C.3     1  UNL1        0.1002
      3 C          63.9430   88.1709   14.2819 C.3     1  UNL1        0.0418
      4 C          63.5963   88.3941   15.7241 C.2     1  UNL1       -0.0331
      5 C          63.1254   87.2473   16.5685 C.2     1  UNL1        0.0412
      6 C          63.7203   89.7643   16.3218 C.3     1  UNL1        0.0418
      7 C          64.1911   90.9111   15.4774 C.3     1  UNL1        0.1002
      8 S          65.0087   91.8347   13.1908 S.O2    1  UNL1        0.0633
      9 O          64.3593   91.2161   11.9885 O.2     1  UNL1       -0.1528
     10 O          65.6581   92.4534   14.3931 O.2     1  UNL1       -0.1528
     11 C          66.8920   96.4222    9.8132 C.3     1  UNL1        0.0310
     12 C          66.4212   95.2753   10.6576 C.ar    1  UNL1       -0.0218
     13 C          66.5670   95.3329   12.1493 C.ar    1  UNL1       -0.0029
     14 C          66.0961   94.1860   12.9938 C.ar    1  UNL1        0.0196
     15 C          65.4796   92.9816   12.3464 C.ar    1  UNL1        0.1222
     16 C          65.3338   92.9240   10.8547 C.ar    1  UNL1        0.0196
     17 C          65.8046   94.0709   10.0102 C.ar    1  UNL1       -0.0029
     18 C          63.0014   85.8772   15.9708 C.1     1  UNL1       -0.0583
     19 C          62.8773   84.5070   15.3730 C.1     1  UNL1       -0.0405
     20 C          62.7533   83.1368   14.7753 C.ar    1  UNL1        0.1224
     21 C          63.9556   82.4672   14.1786 C.ar    1  UNL1        0.0276
     22 C          63.8316   81.0971   13.5808 C.ar    1  UNL1        0.0034
     23 C          62.5052   80.3965   13.5798 C.ar    1  UNL1        0.0148
     24 C          61.3029   81.0661   14.1764 C.ar    1  UNL1        0.0600
     25 C          59.9766   80.3655   14.1754 C.3     1  UNL1        0.0521
     26 N          61.4269   82.4363   14.7742 N.ar    1  UNL1       -0.2414
@<TRIPOS>BOND
     1    11    12    1
     2    12    13   ar
     3    13    14   ar
     4    14    15   ar
     5    15     8    1
     6     8     9    2
     7     8    10    2
     8     8     1    1
     9     1     2    1
    10     2     3    1
    11     3     4    1
    12     4     5    2
    13     5    18    1
    14    18    19    3
    15    19    20    1
    16    20    21   ar
    17    21    22   ar
    18    22    23   ar
    19    23    24   ar
    20    24    25    1
    21    24    26   ar
    22     4     6    1
    23     6     7    1
    24    15    16   ar
    25    16    17   ar
    26    17    12   ar
    27     7     1    1
    28    26    20   ar
@<TRIPOS>MOLECULE
*****
 26 28 0 0 0
SMALL
GASTEIGER

@<TRIPOS>ATOM
      1 N          61.1984   92.6189    2.8010 N.3     1  UNL1       -0.1549
      2 C          61.8442   91.6793    3.7757 C.3     1  UNL1        0.1002
      3 C          61.0077   90.9655    4.7960 C.3     1  UNL1        0.0418
      4 C          59.5255   91.1913    4.8415 C.2     1  UNL1       -0.0331
      5 C          58.6891   90.4775    5.8617 C.2     1  UNL1        0.0412
      6 C          58.8798   92.1309    3.8667 C.3     1  UNL1        0.0418
      7 C          59.7163   92.8447    2.8465 C.3     1  UNL1        0.1002
      8 S          62.0349   93.3327    1.7808 S.O2    1  UNL1        0.0633
      9 O          63.2794   92.8140    2.4382 O.2     1  UNL1       -0.1528
     10 O          60.7904   93.8514    1.1234 O.2     1  UNL1       -0.1528
     11 C          65.3807   96.1879   -2.3001 C.3     1  UNL1        0.0310
     12 C          64.5442   95.4741   -1.2799 C.ar    1  UNL1       -0.0218
     13 C          63.2238   94.8817   -1.6742 C.ar    1  UNL1       -0.0029
     14 C          62.3874   94.1679   -0.6540 C.ar    1  UNL1        0.0196
     15 C          62.8713   94.0465    0.7606 C.ar    1  UNL1        0.1222
     16 C          64.1918   94.6389    1.1549 C.ar    1  UNL1        0.0196
     17 C          65.0282   95.3527    0.1347 C.ar    1  UNL1       -0.0029
     18 C          59.3348   89.5380    6.8364 C.1     1  UNL1       -0.0583
     19 C          59.9805   88.5983    7.8112 C.1     1  UNL1       -0.0405
     20 C          60.6263   87.6587    8.7860 C.ar    1  UNL1        0.1224
     21 C          60.2813   87.7366   10.2437 C.ar    1  UNL1        0.0276
     22 C          60.9270   86.7970   11.2185 C.ar    1  UNL1        0.0034
     23 C          61.9177   85.7795   10.7355 C.ar    1  UNL1        0.0148
     24 C          62.2627   85.7016    9.2779 C.ar    1  UNL1        0.0600
     25 C          63.2534   84.6841    8.7949 C.3     1  UNL1        0.0521
     26 N          61.6170   86.6412    8.3030 N.ar    1  UNL1       -0.2414
@<TRIPOS>BOND
     1    11    12    1
     2    12    13   ar
     3    13    14   ar
     4    14    15   ar
     5    15     8    1
     6     8     9    2
     7     8    10    2
     8     8     1    1
     9     1     2    1
    10     2     3    1
    11     3     4    1
    12     4     5    2
    13     5    18    1
    14    18    19    3
    15    19    20    1
    16    20    21   ar
    17    21    22   ar
    18    22    23   ar
    19    23    24   ar
    20    24    25    1
    21    24    26   ar
    22     4     6    1
    23     6     7    1
    24    15    16   ar
    25    16    17   ar
    26    17    12   ar
    27     7     1    1
    28    26    20   ar
@<TRIPOS>MOLECULE
*****
 26 28 0 0 0
SMALL
GASTEIGER

@<TRIPOS>ATOM
      1 N          63.1721   84.2738   14.1228 N.3     1  UNL1       -0.1549
      2 C          63.7801   85.4761   13.4633 C.3     1  UNL1        0.1002
      3 C          63.8907   86.7688   14.2160 C.3     1  UNL1        0.0418
      4 C          63.3933   86.8594   15.6282 C.2     1  UNL1       -0.0331
      5 C          63.5038   88.1521   16.3809 C.2     1  UNL1        0.0412
      6 C          62.7853   85.6571   16.2877 C.3     1  UNL1        0.0418
      7 C          62.6748   84.3644   15.5350 C.3     1  UNL1        0.1002
      8 S          63.0616   82.9811   13.3701 S.O2    1  UNL1        0.0633
      9 O          63.3853   82.2235   14.6236 O.2     1  UNL1       -0.1528
     10 O          62.7379   83.7386   12.1165 O.2     1  UNL1       -0.1528
     11 C          62.6193   77.8100   10.3593 C.3     1  UNL1        0.0310
     12 C          62.7299   79.1028   11.1120 C.ar    1  UNL1       -0.0218
     13 C          62.4963   79.1305   12.5934 C.ar    1  UNL1       -0.0029
     14 C          62.6068   80.4232   13.3461 C.ar    1  UNL1        0.0196
     15 C          62.9510   81.6883   12.6174 C.ar    1  UNL1        0.1222
     16 C          63.1846   81.6606   11.1360 C.ar    1  UNL1        0.0196
     17 C          63.0740   80.3679   10.3833 C.ar    1  UNL1       -0.0029
     18 C          64.1118   89.3543   15.7214 C.1     1  UNL1       -0.0583
     19 C          64.7198   90.5566   15.0618 C.1     1  UNL1       -0.0405
     20 C          65.3278   91.7588   14.4023 C.ar    1  UNL1        0.1224
     21 C          66.1998   92.6879   15.1939 C.ar    1  UNL1        0.0276
     22 C          66.8078   93.8901   14.5344 C.ar    1  UNL1        0.0034
     23 C          66.5437   94.1634   13.0833 C.ar    1  UNL1        0.0148
     24 C          65.6717   93.2345   12.2918 C.ar    1  UNL1        0.0600
     25 C          65.4076   93.5077   10.8407 C.3     1  UNL1        0.0521
     26 N          65.0637   92.0321   12.9513 N.ar    1  UNL1       -0.2414
@<TRIPOS>BOND
     1    11    12    1
     2    12    13   ar
     3    13    14   ar
     4    14    15   ar
     5    15     8    1
     6     8     9    2
     7     8    10    2
     8     8     1    1
     9     1     2    1
    10     2     3    1
    11     3     4    1
    12     4     5    2
    13     5    18    1
    14    18    19    3
    15    19    20    1
    16    20    21   ar
    17    21    22   ar
    18    22    23   ar
    19    23    24   ar
    20    24    25    1
    21    24    26   ar
    22     4     6    1
    23     6     7    1
    24    15    16   ar
    25    16    17   ar
    26    17    12   ar
    27     7     1    1
    28    26    20   ar
@<TRIPOS>MOLECULE
*****
 26 28 0 0 0
SMALL
GASTEIGER

@<TRIPOS>ATOM
      1 N          63.9055   90.3149   12.2411 N.3     1  UNL1       -0.1549
      2 C          63.3012   91.0465   11.0795 C.3     1  UNL1        0.1002
      3 C          62.2722   90.3720   10.2215 C.3     1  UNL1        0.0418
      4 C          61.8475   88.9658   10.5252 C.2     1  UNL1       -0.0331
      5 C          60.8184   88.2913    9.6673 C.2     1  UNL1        0.0412
      6 C          62.4518   88.2342   11.6869 C.3     1  UNL1        0.0418
      7 C          63.4808   88.9088   12.5448 C.3     1  UNL1        0.1002
      8 S          64.9345   90.9895   13.0991 S.O2    1  UNL1        0.0633
      9 O          64.7142   89.9630   14.1704 O.2     1  UNL1       -0.1528
     10 O          65.1549   92.0160   12.0277 O.2     1  UNL1       -0.1528
     11 C          69.0507   93.6877   16.5309 C.3     1  UNL1        0.0310
     12 C          68.0216   93.0131   15.6729 C.ar    1  UNL1       -0.0218
     13 C          66.6525   92.7377   16.2203 C.ar    1  UNL1       -0.0029
     14 C          65.6235   92.0632   15.3624 C.ar    1  UNL1        0.0196
     15 C          65.9636   91.6640   13.9570 C.ar    1  UNL1        0.1222
     16 C          67.3327   91.9394   13.4097 C.ar    1  UNL1        0.0196
     17 C          68.3617   92.6140   14.2676 C.ar    1  UNL1       -0.0029
     18 C          60.2141   89.0229    8.5056 C.1     1  UNL1       -0.0583
     19 C          59.6097   89.7545    7.3439 C.1     1  UNL1       -0.0405
     20 C          59.0054   90.4861    6.1822 C.ar    1  UNL1        0.1224
     21 C          57.5238   90.4365    5.9533 C.ar    1  UNL1        0.0276
     22 C          56.9195   91.1681    4.7917 C.ar    1  UNL1        0.0034
     23 C          57.7967   91.9493    3.8588 C.ar    1  UNL1        0.0148
     24 C          59.2783   91.9989    4.0877 C.ar    1  UNL1        0.0600
     25 C          60.1556   92.7801    3.1549 C.3     1  UNL1        0.0521
     26 N          59.8827   91.2673    5.2494 N.ar    1  UNL1       -0.2414
@<TRIPOS>BOND
     1    11    12    1
     2    12    13   ar
     3    13    14   ar
     4    14    15   ar
     5    15     8    1
     6     8     9    2
     7     8    10    2
     8     8     1    1
     9     1     2    1
    10     2     3    1
    11     3     4    1
    12     4     5    2
    13     5    18    1
    14    18    19    3
    15    19    20    1
    16    20    21   ar
    17    21    22   ar
    18    22    23   ar
    19    23    24   ar
    20    24    25    1
    21    24    26   ar
    22     4     6    1
    23     6     7    1
    24    15    16   ar
    25    16    17   ar
    26    17    12   ar
    27     7     1    1
    28    26    20   ar
@<TRIPOS>MOLECULE
*****
 26 28 0 0 0
SMALL
GASTEIGER

@<TRIPOS>ATOM
      1 N          63.0720   84.0762   14.0868 N.3     1  UNL1       -0.1549
      2 C          63.7743   85.2673   13.5054 C.3     1  UNL1        0.1002
      3 C          63.8534   86.5460   14.2856 C.3     1  UNL1        0.0418
      4 C          63.2301   86.6336   15.6472 C.2     1  UNL1       -0.0331
      5 C          63.3092   87.9123   16.4274 C.2     1  UNL1        0.0412
      6 C          62.5278   85.4425   16.2285 C.3     1  UNL1        0.0418
      7 C          62.4487   84.1638   15.4483 C.3     1  UNL1        0.1002
      8 S          62.9929   82.7976   13.3066 S.O2    1  UNL1        0.0633
      9 O          62.7331   83.5787   12.0526 O.2     1  UNL1       -0.1528
     10 O          63.2527   82.0164   14.5605 O.2     1  UNL1       -0.1528
     11 C          62.6766   77.6828   10.1857 C.3     1  UNL1        0.0310
     12 C          62.7557   78.9615   10.9659 C.ar    1  UNL1       -0.0218
     13 C          63.0936   80.2459   10.2687 C.ar    1  UNL1       -0.0029
     14 C          63.1727   81.5245   11.0489 C.ar    1  UNL1        0.0196
     15 C          62.9138   81.5189   12.5263 C.ar    1  UNL1        0.1222
     16 C          62.5758   80.2345   13.2236 C.ar    1  UNL1        0.0196
     17 C          62.4968   78.9559   12.4434 C.ar    1  UNL1       -0.0029
     18 C          64.0115   89.1034   15.8460 C.1     1  UNL1       -0.0583
     19 C          64.7138   90.2945   15.2646 C.1     1  UNL1       -0.0405
     20 C          65.4161   91.4856   14.6833 C.ar    1  UNL1        0.1224
     21 C          65.0469   91.9807   13.3163 C.ar    1  UNL1        0.0276
     22 C          65.7492   93.1718   12.7349 C.ar    1  UNL1        0.0034
     23 C          66.8208   93.8679   13.5205 C.ar    1  UNL1        0.0148
     24 C          67.1900   93.3729   14.8875 C.ar    1  UNL1        0.0600
     25 C          68.2616   94.0690   15.6731 C.3     1  UNL1        0.0521
     26 N          66.4877   92.1817   15.4689 N.ar    1  UNL1       -0.2414
@<TRIPOS>BOND
     1    11    12    1
     2    12    13   ar
     3    13    14   ar
     4    14    15   ar
     5    15     8    1
     6     8     9    2
     7     8    10    2
     8     8     1    1
     9     1     2    1
    10     2     3    1
    11     3     4    1
    12     4     5    2
    13     5    18    1
    14    18    19    3
    15    19    20    1
    16    20    21   ar
    17    21    22   ar
    18    22    23   ar
    19    23    24   ar
    20    24    25    1
    21    24    26   ar
    22     4     6    1
    23     6     7    1
    24    15    16   ar
    25    16    17   ar
    26    17    12   ar
    27     7     1    1
    28    26    20   ar
@<TRIPOS>MOLECULE
*****
 26 28 0 0 0
SMALL
GASTEIGER

@<TRIPOS>ATOM
      1 N          72.0336   76.0561   14.2660 N.3     1  UNL1       -0.1549
      2 C          71.9840   76.1791   12.7719 C.3     1  UNL1        0.1002
      3 C          72.1662   77.5193   12.1233 C.3     1  UNL1        0.0418
      4 C          72.3981   78.7364   12.9687 C.2     1  UNL1       -0.0331
      5 C          72.5804   80.0766   12.3201 C.2     1  UNL1        0.0412
      6 C          72.4478   78.6134   14.4628 C.3     1  UNL1        0.0418
      7 C          72.2655   77.2732   15.1115 C.3     1  UNL1        0.1002
      8 S          71.8513   74.7159   14.9147 S.O2    1  UNL1        0.0633
      9 O          71.0601   74.2495   13.7287 O.2     1  UNL1       -0.1528
     10 O          72.6425   75.1823   16.1006 O.2     1  UNL1       -0.1528
     11 C          71.1222   69.3553   17.5093 C.3     1  UNL1        0.0310
     12 C          71.3045   70.6955   16.8606 C.ar    1  UNL1       -0.0218
     13 C          71.5908   70.7846   15.3909 C.ar    1  UNL1       -0.0029
     14 C          71.7731   72.1248   14.7423 C.ar    1  UNL1        0.0196
     15 C          71.6690   73.3758   15.5633 C.ar    1  UNL1        0.1222
     16 C          71.3827   73.2866   17.0330 C.ar    1  UNL1        0.0196
     17 C          71.2004   71.9464   17.6817 C.ar    1  UNL1       -0.0029
     18 C          72.5308   80.1996   10.8260 C.1     1  UNL1       -0.0583
     19 C          72.4811   80.3226    9.3318 C.1     1  UNL1       -0.0405
     20 C          72.4315   80.4457    7.8377 C.ar    1  UNL1        0.1224
     21 C          71.8013   81.6509    7.2049 C.ar    1  UNL1        0.0276
     22 C          71.7517   81.7740    5.7108 C.ar    1  UNL1        0.0034
     23 C          72.3322   80.6918    4.8495 C.ar    1  UNL1        0.0148
     24 C          72.9624   79.4866    5.4822 C.ar    1  UNL1        0.0600
     25 C          73.5429   78.4045    4.6208 C.3     1  UNL1        0.0521
     26 N          73.0120   79.3635    6.9763 N.ar    1  UNL1       -0.2414
@<TRIPOS>BOND
     1    11    12    1
     2    12    13   ar
     3    13    14   ar
     4    14    15   ar
     5    15     8    1
     6     8     9    2
     7     8    10    2
     8     8     1    1
     9     1     2    1
    10     2     3    1
    11     3     4    1
    12     4     5    2
    13     5    18    1
    14    18    19    3
    15    19    20    1
    16    20    21   ar
    17    21    22   ar
    18    22    23   ar
    19    23    24   ar
    20    24    25    1
    21    24    26   ar
    22     4     6    1
    23     6     7    1
    24    15    16   ar
    25    16    17   ar
    26    17    12   ar
    27     7     1    1
    28    26    20   ar
@<TRIPOS>MOLECULE
*****
 26 28 0 0 0
SMALL
GASTEIGER

@<TRIPOS>ATOM
      1 N          61.2120   93.3091    1.7680 N.3     1  UNL1       -0.1549
      2 C          61.7429   92.3890    2.8270 C.3     1  UNL1        0.1002
      3 C          60.8044   91.7619    3.8149 C.3     1  UNL1        0.0418
      4 C          59.3351   92.0549    3.7439 C.2     1  UNL1       -0.0331
      5 C          58.3966   91.4278    4.7318 C.2     1  UNL1        0.0412
      6 C          58.8042   92.9751    2.6850 C.3     1  UNL1        0.0418
      7 C          59.7427   93.6022    1.6970 C.3     1  UNL1        0.1002
      8 S          62.1505   93.9363    0.7801 S.O2    1  UNL1        0.0633
      9 O          62.1117   92.6872   -0.0496 O.2     1  UNL1       -0.1528
     10 O          62.1893   95.1853    1.6098 O.2     1  UNL1       -0.1528
     11 C          65.9043   96.4447   -3.1717 C.3     1  UNL1        0.0310
     12 C          64.9659   95.8176   -2.1837 C.ar    1  UNL1       -0.0218
     13 C          64.8908   96.3449   -0.7815 C.ar    1  UNL1       -0.0029
     14 C          63.9524   95.7178    0.2064 C.ar    1  UNL1        0.0196
     15 C          63.0889   94.5634   -0.2078 C.ar    1  UNL1        0.1222
     16 C          63.1640   94.0360   -1.6100 C.ar    1  UNL1        0.0196
     17 C          64.1025   94.6631   -2.5980 C.ar    1  UNL1       -0.0029
     18 C          58.9275   90.5077    5.7908 C.1     1  UNL1       -0.0583
     19 C          59.4584   89.5874    6.8498 C.1     1  UNL1       -0.0405
     20 C          59.9892   88.6672    7.9087 C.ar    1  UNL1        0.1224
     21 C          59.7373   87.1914    7.8150 C.ar    1  UNL1        0.0276
     22 C          60.2682   86.2713    8.8739 C.ar    1  UNL1        0.0034
     23 C          61.0510   86.8268   10.0266 C.ar    1  UNL1        0.0148
     24 C          61.3029   88.3025   10.1203 C.ar    1  UNL1        0.0600
     25 C          62.0857   88.8580   11.2730 C.3     1  UNL1        0.0521
     26 N          60.7720   89.2227    9.0614 N.ar    1  UNL1       -0.2414
@<TRIPOS>BOND
     1    11    12    1
     2    12    13   ar
     3    13    14   ar
     4    14    15   ar
     5    15     8    1
     6     8     9    2
     7     8    10    2
     8     8     1    1
     9     1     2    1
    10     2     3    1
    11     3     4    1
    12     4     5    2
    13     5    18    1
    14    18    19    3
    15    19    20    1
    16    20    21   ar
    17    21    22   ar
    18    22    23   ar
    19    23    24   ar
    20    24    25    1
    21    24    26   ar
    22     4     6    1
    23     6     7    1
    24    15    16   ar
    25    16    17   ar
    26    17    12   ar
    27     7     1    1
    28    26    20   ar
@<TRIPOS>MOLECULE
*****
 26 28 0 0 0
SMALL
GASTEIGER

@<TRIPOS>ATOM
      1 N          62.2873   85.7155   11.4211 N.3     1  UNL1       -0.1549
      2 C          63.2104   86.7518   11.9901 C.3     1  UNL1        0.1002
      3 C          63.1768   88.1562   11.4642 C.3     1  UNL1        0.0418
      4 C          62.2200   88.5243   10.3692 C.2     1  UNL1       -0.0331
      5 C          62.1864   89.9287    9.8433 C.2     1  UNL1        0.0412
      6 C          61.2969   87.4880    9.8002 C.3     1  UNL1        0.0418
      7 C          61.3305   86.0836   10.3261 C.3     1  UNL1        0.1002
      8 S          62.3209   84.3111   11.9470 S.O2    1  UNL1        0.0633
      9 O          61.9853   84.8168   13.3187 O.2     1  UNL1       -0.1528
     10 O          62.6565   83.8055   10.5752 O.2     1  UNL1       -0.1528
     11 C          62.4553   78.6936   14.0506 C.3     1  UNL1        0.0310
     12 C          62.4217   80.0980   13.5247 C.ar    1  UNL1       -0.0218
     13 C          62.8304   80.3787   12.1091 C.ar    1  UNL1       -0.0029
     14 C          62.7968   81.7831   11.5832 C.ar    1  UNL1        0.0196
     15 C          62.3545   82.9067   12.4729 C.ar    1  UNL1        0.1222
     16 C          61.9458   82.6260   13.8885 C.ar    1  UNL1        0.0196
     17 C          61.9794   81.2217   14.4145 C.ar    1  UNL1       -0.0029
     18 C          63.1096   90.9649   10.4124 C.1     1  UNL1       -0.0583
     19 C          64.0329   92.0012   10.9815 C.1     1  UNL1       -0.0405
     20 C          64.9560   93.0375   11.5505 C.ar    1  UNL1        0.1224
     21 C          65.2977   94.2587   10.7493 C.ar    1  UNL1        0.0276
     22 C          66.2209   95.2950   11.3184 C.ar    1  UNL1        0.0034
     23 C          66.8025   95.1101   12.6886 C.ar    1  UNL1        0.0148
     24 C          66.4609   93.8889   13.4898 C.ar    1  UNL1        0.0600
     25 C          67.0425   93.7039   14.8600 C.3     1  UNL1        0.0521
     26 N          65.5376   92.8525   12.9208 N.ar    1  UNL1       -0.2414
@<TRIPOS>BOND
     1    11    12    1
     2    12    13   ar
     3    13    14   ar
     4    14    15   ar
     5    15     8    1
     6     8     9    2
     7     8    10    2
     8     8     1    1
     9     1     2    1
    10     2     3    1
    11     3     4    1
    12     4     5    2
    13     5    18    1
    14    18    19    3
    15    19    20    1
    16    20    21   ar
    17    21    22   ar
    18    22    23   ar
    19    23    24   ar
    20    24    25    1
    21    24    26   ar
    22     4     6    1
    23     6     7    1
    24    15    16   ar
    25    16    17   ar
    26    17    12   ar
    27     7     1    1
    28    26    20   ar
