@<TRIPOS>MOLECULE
*****
 18 20 0 0 0
SMALL
GASTEIGER

@<TRIPOS>ATOM
      1 O          61.7678   88.9037   10.0165 O.2     1  UNL1       -0.2376
      2 C          62.4010   88.2496   11.2087 C.2     1  UNL1        0.3788
      3 N          62.2585   86.7709   11.4167 N.am    1  UNL1        0.0364
      4 C          62.8917   86.1168   12.6088 C.2     1  UNL1        0.3688
      5 N          63.6674   86.9413   13.5929 N.2     1  UNL1       -0.0400
      6 C          63.8099   88.4200   13.3849 C.2     1  UNL1        0.1818
      7 C          64.5856   89.2444   14.3690 C.3     1  UNL1        0.1000
      8 C          64.7281   90.7231   14.1610 C.2     1  UNL1       -0.0174
      9 C          64.0949   91.3772   12.9689 C.2     1  UNL1       -0.0038
     10 C          63.3192   90.5527   11.9848 C.2     1  UNL1        0.0101
     11 C          63.1767   89.0741   12.1928 C.2     1  UNL1        0.1209
     12 C          62.7492   84.6381   12.8168 C.ar    1  UNL1        0.0865
     13 C          62.8233   83.7052   11.6445 C.ar    1  UNL1        0.0080
     14 C          62.6808   82.2266   11.8525 C.ar    1  UNL1        0.0069
     15 C          62.4641   81.6808   13.2328 C.ar    1  UNL1        0.0346
     16 BR         62.3216   80.2021   13.4408 Br      1  UNL1       -0.0490
     17 C          62.3900   82.6137   14.4051 C.ar    1  UNL1        0.0069
     18 C          62.5325   84.0923   14.1970 C.ar    1  UNL1        0.0080
@<TRIPOS>BOND
     1     1     2    2
     2     2     3    1
     3     3     4    2
     4     4    12    1
     5    12    13   ar
     6    13    14   ar
     7    14    15   ar
     8    15    16    1
     9    15    17   ar
    10    17    18   ar
    11     4     5    1
    12     5     6    2
    13     6     7    1
    14     7     8    1
    15     8     9    2
    16     9    10    1
    17    10    11    2
    18    11     2    1
    19    18    12   ar
    20    11     6    1
@<TRIPOS>MOLECULE
*****
 18 20 0 0 0
SMALL
GASTEIGER

@<TRIPOS>ATOM
      1 O          61.8431   85.0042   10.9975 O.2     1  UNL1       -0.2376
      2 C          61.8436   86.4938   10.8215 C.2     1  UNL1        0.3788
      3 N          62.6822   87.3548   11.7189 N.am    1  UNL1        0.0364
      4 C          62.6826   88.8444   11.5429 C.2     1  UNL1        0.3688
      5 N          61.8444   89.4731   10.4695 N.2     1  UNL1       -0.0400
      6 C          61.0058   88.6121    9.5720 C.2     1  UNL1        0.1818
      7 C          60.1676   89.2407    8.4986 C.3     1  UNL1        0.1000
      8 C          59.3290   88.3797    7.6012 C.2     1  UNL1       -0.0174
      9 C          59.3286   86.8901    7.7772 C.2     1  UNL1       -0.0038
     10 C          60.1668   86.2614    8.8506 C.2     1  UNL1        0.0101
     11 C          61.0053   87.1224    9.7480 C.2     1  UNL1        0.1209
     12 C          63.5213   89.7054   12.4404 C.ar    1  UNL1        0.0865
     13 C          63.9176   91.0838   12.0012 C.ar    1  UNL1        0.0080
     14 C          64.7562   91.9447   12.8987 C.ar    1  UNL1        0.0069
     15 C          65.1985   91.4273   14.2353 C.ar    1  UNL1        0.0346
     16 BR         66.0371   92.2883   15.1328 Br      1  UNL1       -0.0490
     17 C          64.8021   90.0489   14.6745 C.ar    1  UNL1        0.0069
     18 C          63.9635   89.1880   13.7771 C.ar    1  UNL1        0.0080
@<TRIPOS>BOND
     1     1     2    2
     2     2     3    1
     3     3     4    2
     4     4    12    1
     5    12    13   ar
     6    13    14   ar
     7    14    15   ar
     8    15    16    1
     9    15    17   ar
    10    17    18   ar
    11     4     5    1
    12     5     6    2
    13     6     7    1
    14     7     8    1
    15     8     9    2
    16     9    10    1
    17    10    11    2
    18    11     2    1
    19    18    12   ar
    20    11     6    1
@<TRIPOS>MOLECULE
*****
 18 20 0 0 0
SMALL
GASTEIGER

@<TRIPOS>ATOM
      1 O          64.6591   89.0284   14.6229 O.2     1  UNL1       -0.2376
      2 C          63.8963   88.2417   13.5985 C.2     1  UNL1        0.3788
      3 N          63.7165   86.7624   13.7703 N.am    1  UNL1        0.0364
      4 C          62.9537   85.9757   12.7460 C.2     1  UNL1        0.3688
      5 N          62.3708   86.6682   11.5499 N.2     1  UNL1       -0.0400
      6 C          62.5506   88.1475   11.3781 C.2     1  UNL1        0.1818
      7 C          61.9677   88.8399   10.1820 C.3     1  UNL1        0.1000
      8 C          62.1475   90.3191   10.0103 C.2     1  UNL1       -0.0174
      9 C          62.9103   91.1059   11.0346 C.2     1  UNL1       -0.0038
     10 C          63.4932   90.4134   12.2307 C.2     1  UNL1        0.0101
     11 C          63.3134   88.9342   12.4024 C.2     1  UNL1        0.1209
     12 C          62.7739   84.4964   12.9178 C.ar    1  UNL1        0.0865
     13 C          62.5004   83.9272   14.2783 C.ar    1  UNL1        0.0080
     14 C          62.3205   82.4480   14.4501 C.ar    1  UNL1        0.0069
     15 C          62.4142   81.5380   13.2613 C.ar    1  UNL1        0.0346
     16 BR         62.2344   80.0587   13.4331 Br      1  UNL1       -0.0490
     17 C          62.6877   82.1072   11.9008 C.ar    1  UNL1        0.0069
     18 C          62.8675   83.5865   11.7290 C.ar    1  UNL1        0.0080
@<TRIPOS>BOND
     1     1     2    2
     2     2     3    1
     3     3     4    2
     4     4    12    1
     5    12    13   ar
     6    13    14   ar
     7    14    15   ar
     8    15    16    1
     9    15    17   ar
    10    17    18   ar
    11     4     5    1
    12     5     6    2
    13     6     7    1
    14     7     8    1
    15     8     9    2
    16     9    10    1
    17    10    11    2
    18    11     2    1
    19    18    12   ar
    20    11     6    1
@<TRIPOS>MOLECULE
*****
 18 20 0 0 0
SMALL
GASTEIGER

@<TRIPOS>ATOM
      1 O          63.9511   89.5129   15.5391 O.2     1  UNL1       -0.2376
      2 C          63.8637   89.9671   14.1122 C.2     1  UNL1        0.3788
      3 N          62.9673   89.2465   13.1493 N.am    1  UNL1        0.0364
      4 C          62.8798   89.7007   11.7224 C.2     1  UNL1        0.3688
      5 N          63.6888   90.8755   11.2584 N.2     1  UNL1       -0.0400
      6 C          64.5853   91.5962   12.2212 C.2     1  UNL1        0.1818
      7 C          65.3942   92.7710   11.7572 C.3     1  UNL1        0.1000
      8 C          66.2906   93.4916   12.7201 C.2     1  UNL1       -0.0174
      9 C          66.3780   93.0374   14.1470 C.2     1  UNL1       -0.0038
     10 C          65.5691   91.8626   14.6110 C.2     1  UNL1        0.0101
     11 C          64.6727   91.1420   13.6481 C.2     1  UNL1        0.1209
     12 C          61.9834   88.9800   10.7595 C.ar    1  UNL1        0.0865
     13 C          61.0497   89.7566    9.8791 C.ar    1  UNL1        0.0080
     14 C          60.1533   89.0359    8.9163 C.ar    1  UNL1        0.0069
     15 C          60.1906   87.5386    8.8339 C.ar    1  UNL1        0.0346
     16 BR         59.2941   86.8180    7.8710 Br      1  UNL1       -0.0490
     17 C          61.1242   86.7621    9.7143 C.ar    1  UNL1        0.0069
     18 C          62.0206   87.4827   10.6771 C.ar    1  UNL1        0.0080
@<TRIPOS>BOND
     1     1     2    2
     2     2     3    1
     3     3     4    2
     4     4    12    1
     5    12    13   ar
     6    13    14   ar
     7    14    15   ar
     8    15    16    1
     9    15    17   ar
    10    17    18   ar
    11     4     5    1
    12     5     6    2
    13     6     7    1
    14     7     8    1
    15     8     9    2
    16     9    10    1
    17    10    11    2
    18    11     2    1
    19    18    12   ar
    20    11     6    1
@<TRIPOS>MOLECULE
*****
 18 20 0 0 0
SMALL
GASTEIGER

@<TRIPOS>ATOM
      1 O          63.3264   90.7360   16.8989 O.2     1  UNL1       -0.2376
      2 C          63.7540   90.8273   15.4641 C.2     1  UNL1        0.3788
      3 N          62.9316   90.1737   14.3934 N.am    1  UNL1        0.0364
      4 C          63.3591   90.2650   12.9585 C.2     1  UNL1        0.3688
      5 N          64.6091   91.0098   12.5943 N.2     1  UNL1       -0.0400
      6 C          65.4316   91.6635   13.6650 C.2     1  UNL1        0.1818
      7 C          66.6816   92.4083   13.3008 C.3     1  UNL1        0.1000
      8 C          67.5040   93.0619   14.3715 C.2     1  UNL1       -0.0174
      9 C          67.0764   92.9707   15.8063 C.2     1  UNL1       -0.0038
     10 C          65.8265   92.2258   16.1705 C.2     1  UNL1        0.0101
     11 C          65.0040   91.5722   15.0999 C.2     1  UNL1        0.1209
     12 C          62.5366   89.6113   11.8878 C.ar    1  UNL1        0.0865
     13 C          62.7085   88.1499   11.5972 C.ar    1  UNL1        0.0080
     14 C          61.8860   87.4963   10.5265 C.ar    1  UNL1        0.0069
     15 C          60.8916   88.3042    9.7465 C.ar    1  UNL1        0.0346
     16 BR         60.0691   87.6506    8.6758 Br      1  UNL1       -0.0490
     17 C          60.7197   89.7657   10.0371 C.ar    1  UNL1        0.0069
     18 C          61.5422   90.4193   11.1078 C.ar    1  UNL1        0.0080
@<TRIPOS>BOND
     1     1     2    2
     2     2     3    1
     3     3     4    2
     4     4    12    1
     5    12    13   ar
     6    13    14   ar
     7    14    15   ar
     8    15    16    1
     9    15    17   ar
    10    17    18   ar
    11     4     5    1
    12     5     6    2
    13     6     7    1
    14     7     8    1
    15     8     9    2
    16     9    10    1
    17    10    11    2
    18    11     2    1
    19    18    12   ar
    20    11     6    1
@<TRIPOS>MOLECULE
*****
 18 20 0 0 0
SMALL
GASTEIGER

@<TRIPOS>ATOM
      1 O          64.7093   82.6024   10.1287 O.2     1  UNL1       -0.2376
      2 C          63.7704   83.5987   10.7417 C.2     1  UNL1        0.3788
      3 N          63.0267   84.5647    9.8678 N.am    1  UNL1        0.0364
      4 C          62.0878   85.5611   10.4809 C.2     1  UNL1        0.3688
      5 N          61.8927   85.5915   11.9678 N.2     1  UNL1       -0.0400
      6 C          62.6364   84.6255   12.8417 C.2     1  UNL1        0.1818
      7 C          62.4413   84.6559   14.3287 C.3     1  UNL1        0.1000
      8 C          63.1850   83.6899   15.2026 C.2     1  UNL1       -0.0174
      9 C          64.1239   82.6936   14.5895 C.2     1  UNL1       -0.0038
     10 C          64.3190   82.6631   13.1026 C.2     1  UNL1        0.0101
     11 C          63.5753   83.6291   12.2287 C.2     1  UNL1        0.1209
     12 C          61.3441   86.5271    9.6069 C.ar    1  UNL1        0.0865
     13 C          61.4131   87.9989    9.8877 C.ar    1  UNL1        0.0080
     14 C          60.6694   88.9648    9.0137 C.ar    1  UNL1        0.0069
     15 C          59.8567   88.4589    7.8589 C.ar    1  UNL1        0.0346
     16 BR         59.1129   89.4249    6.9849 Br      1  UNL1       -0.0490
     17 C          59.7876   86.9870    7.5782 C.ar    1  UNL1        0.0069
     18 C          60.5313   86.0211    8.4521 C.ar    1  UNL1        0.0080
@<TRIPOS>BOND
     1     1     2    2
     2     2     3    1
     3     3     4    2
     4     4    12    1
     5    12    13   ar
     6    13    14   ar
     7    14    15   ar
     8    15    16    1
     9    15    17   ar
    10    17    18   ar
    11     4     5    1
    12     5     6    2
    13     6     7    1
    14     7     8    1
    15     8     9    2
    16     9    10    1
    17    10    11    2
    18    11     2    1
    19    18    12   ar
    20    11     6    1
@<TRIPOS>MOLECULE
*****
 18 20 0 0 0
SMALL
GASTEIGER

@<TRIPOS>ATOM
      1 O          64.1161   87.0285   14.2873 O.2     1  UNL1       -0.2376
      2 C          63.4057   86.2896   13.1921 C.2     1  UNL1        0.3788
      3 N          62.6816   87.0504   12.1212 N.am    1  UNL1        0.0364
      4 C          61.9712   86.3115   11.0260 C.2     1  UNL1        0.3688
      5 N          61.9849   84.8118   11.0018 N.2     1  UNL1       -0.0400
      6 C          62.7090   84.0509   12.0727 C.2     1  UNL1        0.1818
      7 C          62.7226   82.5512   12.0484 C.3     1  UNL1        0.1000
      8 C          63.4467   81.7904   13.1193 C.2     1  UNL1       -0.0174
      9 C          64.1571   82.5292   14.2145 C.2     1  UNL1       -0.0038
     10 C          64.1434   84.0289   14.2388 C.2     1  UNL1        0.0101
     11 C          63.4194   84.7898   13.1679 C.2     1  UNL1        0.1209
     12 C          61.2471   87.0724    9.9551 C.ar    1  UNL1        0.0865
     13 C          60.5564   86.3341    8.8471 C.ar    1  UNL1        0.0080
     14 C          59.8324   87.0950    7.7762 C.ar    1  UNL1        0.0069
     15 C          59.7991   88.5942    7.8134 C.ar    1  UNL1        0.0346
     16 BR         59.0750   89.3551    6.7425 Br      1  UNL1       -0.0490
     17 C          60.4898   89.3325    8.9215 C.ar    1  UNL1        0.0069
     18 C          61.2138   88.5716    9.9923 C.ar    1  UNL1        0.0080
@<TRIPOS>BOND
     1     1     2    2
     2     2     3    1
     3     3     4    2
     4     4    12    1
     5    12    13   ar
     6    13    14   ar
     7    14    15   ar
     8    15    16    1
     9    15    17   ar
    10    17    18   ar
    11     4     5    1
    12     5     6    2
    13     6     7    1
    14     7     8    1
    15     8     9    2
    16     9    10    1
    17    10    11    2
    18    11     2    1
    19    18    12   ar
    20    11     6    1
@<TRIPOS>MOLECULE
*****
 18 20 0 0 0
SMALL
GASTEIGER

@<TRIPOS>ATOM
      1 O          63.2492   89.5150   12.1818 O.2     1  UNL1       -0.2376
      2 C          62.6039   88.2857   11.6141 C.2     1  UNL1        0.3788
      3 N          62.9109   86.9391   12.1991 N.am    1  UNL1        0.0364
      4 C          62.2655   85.7098   11.6314 C.2     1  UNL1        0.3688
      5 N          61.3131   85.8272   10.4785 N.2     1  UNL1       -0.0400
      6 C          61.0060   87.1738    9.8934 C.2     1  UNL1        0.1818
      7 C          60.0536   87.2911    8.7405 C.3     1  UNL1        0.1000
      8 C          59.7466   88.6377    8.1555 C.2     1  UNL1       -0.0174
      9 C          60.3919   89.8670    8.7232 C.2     1  UNL1       -0.0038
     10 C          61.3444   89.7497    9.8761 C.2     1  UNL1        0.0101
     11 C          61.6514   88.4031   10.4612 C.2     1  UNL1        0.1209
     12 C          62.5726   84.3632   12.2165 C.ar    1  UNL1        0.0865
     13 C          62.7897   83.1851   11.3138 C.ar    1  UNL1        0.0080
     14 C          63.0967   81.8385   11.8990 C.ar    1  UNL1        0.0069
     15 C          63.1867   81.6701   13.3868 C.ar    1  UNL1        0.0346
     16 BR         63.4938   80.3234   13.9719 Br      1  UNL1       -0.0490
     17 C          62.9697   82.8482   14.2894 C.ar    1  UNL1        0.0069
     18 C          62.6626   84.1948   13.7043 C.ar    1  UNL1        0.0080
@<TRIPOS>BOND
     1     1     2    2
     2     2     3    1
     3     3     4    2
     4     4    12    1
     5    12    13   ar
     6    13    14   ar
     7    14    15   ar
     8    15    16    1
     9    15    17   ar
    10    17    18   ar
    11     4     5    1
    12     5     6    2
    13     6     7    1
    14     7     8    1
    15     8     9    2
    16     9    10    1
    17    10    11    2
    18    11     2    1
    19    18    12   ar
    20    11     6    1
@<TRIPOS>MOLECULE
*****
 18 20 0 0 0
SMALL
GASTEIGER

@<TRIPOS>ATOM
      1 O          59.3810   90.8504   10.3348 O.2     1  UNL1       -0.2376
      2 C          60.6087   90.1128   10.7805 C.2     1  UNL1        0.3788
      3 N          61.5927   90.7786   11.6961 N.am    1  UNL1        0.0364
      4 C          62.8204   90.0410   12.1418 C.2     1  UNL1        0.3688
      5 N          63.0641   88.6375   11.6719 N.2     1  UNL1       -0.0400
      6 C          62.0801   87.9716   10.7562 C.2     1  UNL1        0.1818
      7 C          62.3238   86.5682   10.2863 C.3     1  UNL1        0.1000
      8 C          61.3398   85.9024    9.3707 C.2     1  UNL1       -0.0174
      9 C          60.1121   86.6400    8.9250 C.2     1  UNL1       -0.0038
     10 C          59.8684   88.0434    9.3949 C.2     1  UNL1        0.0101
     11 C          60.8524   88.7093   10.3105 C.2     1  UNL1        0.1209
     12 C          63.8044   90.7069   13.0574 C.ar    1  UNL1        0.0865
     13 C          64.8266   91.6525   12.4999 C.ar    1  UNL1        0.0080
     14 C          65.8105   92.3183   13.4155 C.ar    1  UNL1        0.0069
     15 C          65.7723   92.0386   14.8887 C.ar    1  UNL1        0.0346
     16 BR         66.7563   92.7045   15.8044 Br      1  UNL1       -0.0490
     17 C          64.7501   91.0930   15.4463 C.ar    1  UNL1        0.0069
     18 C          63.7662   90.4271   14.5306 C.ar    1  UNL1        0.0080
@<TRIPOS>BOND
     1     1     2    2
     2     2     3    1
     3     3     4    2
     4     4    12    1
     5    12    13   ar
     6    13    14   ar
     7    14    15   ar
     8    15    16    1
     9    15    17   ar
    10    17    18   ar
    11     4     5    1
    12     5     6    2
    13     6     7    1
    14     7     8    1
    15     8     9    2
    16     9    10    1
    17    10    11    2
    18    11     2    1
    19    18    12   ar
    20    11     6    1
