@<TRIPOS>MOLECULE
*****
 40 44 0 0 0
SMALL
GASTEIGER

@<TRIPOS>ATOM
      1 C          60.1163   92.2664    3.9669 C.3     1  UNL1        0.0743
      2 C          61.1157   91.3831    4.6532 C.3     1  UNL1        0.0369
      3 C          60.6515   90.3414    5.6276 C.3     1  UNL1        0.0741
      4 N          59.1879   90.1832    5.9157 N.3     1  UNL1       -0.2688
      5 C          58.1886   91.0665    5.2295 C.3     1  UNL1        0.0741
      6 C          58.6527   92.1082    4.2550 C.3     1  UNL1        0.0369
      7 C          61.6195   92.9652    1.9664 C.2     1  UNL1        0.2254
      8 O          62.1944   91.5808    1.9148 O.2     1  UNL1       -0.2748
      9 N          60.5804   93.3081    2.9924 N.am    1  UNL1       -0.3056
     10 H          60.2031   94.2168    3.0263 H       1  UNL1        0.1494
     11 N          64.4506   95.7754    0.4723 N.3     1  UNL1       -0.2726
     12 C          63.2628   95.8240   -0.4425 C.3     1  UNL1        0.0729
     13 C          62.0794   94.9398   -0.1826 C.3     1  UNL1        0.0301
     14 C          62.0837   94.0069    0.9919 C.3     1  UNL1        0.0902
     15 C          63.2715   93.9583    1.9067 C.3     1  UNL1        0.0301
     16 C          64.4549   94.8425    1.6468 C.3     1  UNL1        0.0729
     17 C          60.7347   93.6938    0.4156 C.ar    1  UNL1       -0.0145
     18 C          60.4629   92.3368   -0.1630 C.ar    1  UNL1       -0.0038
     19 C          59.1139   92.0237   -0.7393 C.ar    1  UNL1       -0.0003
     20 C          58.0367   93.0675   -0.7370 C.ar    1  UNL1       -0.0000
     21 C          58.3084   94.4245   -0.1585 C.ar    1  UNL1       -0.0003
     22 C          59.6575   94.7376    0.4179 C.ar    1  UNL1       -0.0038
     23 C          66.1333   96.8520   -1.1889 C.3     1  UNL1        0.0188
     24 C          65.6340   96.6597    0.2124 C.3     1  UNL1        0.0721
     25 C          58.7238   89.1415    6.8902 C.3     1  UNL1        0.0992
     26 C          59.6728   88.5999    7.9178 C.ar    1  UNL1       -0.0031
     27 C          60.2850   87.2431    7.7321 C.ar    1  UNL1       -0.0027
     28 C          61.2341   86.7015    8.7598 C.ar    1  UNL1        0.0029
     29 C          61.5710   87.5167    9.9730 C.ar    1  UNL1        0.0375
     30 C          60.9588   88.8735   10.1586 C.ar    1  UNL1        0.1452
     31 C          60.0098   89.4151    9.1310 C.ar    1  UNL1        0.0346
     32 O          61.2958   89.6886   11.3718 O.3     1  UNL1       -0.4504
     33 C          62.5493   90.5120   11.3978 C.ar    1  UNL1        0.1789
     34 C          62.9819   91.2583   10.1706 C.ar    1  UNL1        0.0406
     35 C          64.2355   92.0818   10.1966 C.ar    1  UNL1        0.0033
     36 C          65.0563   92.1590   11.4497 C.ar    1  UNL1        0.0033
     37 C          64.6236   91.4127   12.6769 C.ar    1  UNL1        0.0401
     38 C          63.3701   90.5893   12.6509 C.ar    1  UNL1        0.1730
     39 O          62.9375   89.8430   13.8781 O.3     1  UNL1       -0.4684
     40 C          63.8578   88.8415   14.5103 C.3     1  UNL1        0.2526
@<TRIPOS>BOND
     1    23    24    1
     2    24    11    1
     3    11    12    1
     4    12    13    1
     5    13    14    1
     6    14     7    1
     7     7     8    2
     8     7     9   am
     9     9     1    1
    10     1     2    1
    11     2     3    1
    12     3     4    1
    13     4    25    1
    14    25    26    1
    15    26    27   ar
    16    27    28   ar
    17    28    29   ar
    18    29    30   ar
    19    30    32    1
    20    32    33    1
    21    33    34   ar
    22    34    35   ar
    23    35    36   ar
    24    36    37   ar
    25    37    38   ar
    26    38    39    1
    27    39    40    1
    28    30    31   ar
    29     4     5    1
    30     5     6    1
    31    14    17    1
    32    17    18   ar
    33    18    19   ar
    34    19    20   ar
    35    20    21   ar
    36    21    22   ar
    37    14    15    1
    38    15    16    1
    39    16    11    1
    40     6     1    1
    41    22    17   ar
    42    31    26   ar
    43    38    33   ar
    44     9    10    1
@<TRIPOS>MOLECULE
*****
 40 44 0 0 0
SMALL
GASTEIGER

@<TRIPOS>ATOM
      1 C          59.5939   92.2921    3.9862 C.3     1  UNL1        0.0743
      2 C          60.7438   91.5017    4.5367 C.3     1  UNL1        0.0369
      3 C          60.4931   90.4034    5.5271 C.3     1  UNL1        0.0741
      4 N          59.0925   90.0955    5.9669 N.3     1  UNL1       -0.2688
      5 C          57.9426   90.8860    5.4165 C.3     1  UNL1        0.0741
      6 C          58.1933   91.9843    4.4261 C.3     1  UNL1        0.0369
      7 C          59.9617   93.0708    1.5350 C.2     1  UNL1        0.2254
      8 O          59.8280   91.6528    1.0646 O.2     1  UNL1       -0.2748
      9 N          59.8446   93.3905    2.9959 N.am    1  UNL1       -0.3056
     10 H          59.9323   94.3212    3.3046 H       1  UNL1        0.1494
     11 N          58.7414   95.8025   -1.4970 N.3     1  UNL1       -0.2726
     12 C          60.2060   96.0310   -1.2673 C.3     1  UNL1        0.0729
     13 C          60.9415   95.2143   -0.2465 C.3     1  UNL1        0.0301
     14 C          60.2124   94.1691    0.5446 C.3     1  UNL1        0.0902
     15 C          58.7478   93.9406    0.3150 C.3     1  UNL1        0.0301
     16 C          58.0123   94.7574   -0.7059 C.3     1  UNL1        0.0729
     17 C          61.5899   94.0162    1.1183 C.ar    1  UNL1       -0.0145
     18 C          62.3712   95.2296    1.5268 C.ar    1  UNL1       -0.0038
     19 C          63.7487   95.0768    2.1005 C.ar    1  UNL1       -0.0003
     20 C          64.3449   93.7103    2.2655 C.ar    1  UNL1       -0.0000
     21 C          63.5637   92.4967    1.8569 C.ar    1  UNL1       -0.0003
     22 C          62.1861   92.6497    1.2833 C.ar    1  UNL1       -0.0038
     23 C          56.7228   96.1091   -3.1036 C.3     1  UNL1        0.0188
     24 C          58.0060   96.6192   -2.5178 C.3     1  UNL1        0.0721
     25 C          58.8417   88.9972    6.9573 C.3     1  UNL1        0.0992
     26 C          59.8697   88.6813    8.0031 C.ar    1  UNL1       -0.0031
     27 C          60.6714   87.4169    7.9090 C.ar    1  UNL1       -0.0027
     28 C          61.6993   87.1011    8.9548 C.ar    1  UNL1        0.0029
     29 C          61.9255   88.0494   10.0946 C.ar    1  UNL1        0.0375
     30 C          61.1238   89.3138   10.1887 C.ar    1  UNL1        0.1452
     31 C          60.0959   89.6297    9.1430 C.ar    1  UNL1        0.0346
     32 O          61.3501   90.2621   11.3286 O.3     1  UNL1       -0.4504
     33 C          62.7082   90.8595   11.5491 C.ar    1  UNL1        0.1789
     34 C          63.4171   91.5476   10.4203 C.ar    1  UNL1        0.0406
     35 C          64.7753   92.1449   10.6408 C.ar    1  UNL1        0.0033
     36 C          65.4245   92.0542   11.9898 C.ar    1  UNL1        0.0033
     37 C          64.7156   91.3661   13.1186 C.ar    1  UNL1        0.0401
     38 C          63.3575   90.7688   12.8982 C.ar    1  UNL1        0.1730
     39 O          62.6487   90.0807   14.0270 O.3     1  UNL1       -0.4684
     40 C          63.3662   89.8266   15.3194 C.3     1  UNL1        0.2526
@<TRIPOS>BOND
     1    23    24    1
     2    24    11    1
     3    11    12    1
     4    12    13    1
     5    13    14    1
     6    14     7    1
     7     7     8    2
     8     7     9   am
     9     9     1    1
    10     1     2    1
    11     2     3    1
    12     3     4    1
    13     4    25    1
    14    25    26    1
    15    26    27   ar
    16    27    28   ar
    17    28    29   ar
    18    29    30   ar
    19    30    32    1
    20    32    33    1
    21    33    34   ar
    22    34    35   ar
    23    35    36   ar
    24    36    37   ar
    25    37    38   ar
    26    38    39    1
    27    39    40    1
    28    30    31   ar
    29     4     5    1
    30     5     6    1
    31    14    17    1
    32    17    18   ar
    33    18    19   ar
    34    19    20   ar
    35    20    21   ar
    36    21    22   ar
    37    14    15    1
    38    15    16    1
    39    16    11    1
    40     6     1    1
    41    22    17   ar
    42    31    26   ar
    43    38    33   ar
    44     9    10    1
@<TRIPOS>MOLECULE
*****
 40 44 0 0 0
SMALL
GASTEIGER

@<TRIPOS>ATOM
      1 C          59.6518   92.2968    3.9810 C.3     1  UNL1        0.0743
      2 C          60.8404   91.5083    4.4453 C.3     1  UNL1        0.0369
      3 C          60.6625   90.3979    5.4381 C.3     1  UNL1        0.0741
      4 N          59.2960   90.0762    5.9665 N.3     1  UNL1       -0.2688
      5 C          58.1074   90.8647    5.5022 C.3     1  UNL1        0.0741
      6 C          58.2854   91.9750    4.5094 C.3     1  UNL1        0.0369
      7 C          60.0140   93.0903    1.5338 C.2     1  UNL1        0.2254
      8 O          60.0204   91.6632    1.0720 O.2     1  UNL1       -0.2748
      9 N          59.8298   93.4071    2.9883 N.am    1  UNL1       -0.3056
     10 H          59.8256   94.3438    3.2913 H       1  UNL1        0.1494
     11 N          58.5976   95.7824   -1.4481 N.3     1  UNL1       -0.2726
     12 C          60.0586   96.0666   -1.2619 C.3     1  UNL1        0.0729
     13 C          60.8558   95.2757   -0.2674 C.3     1  UNL1        0.0301
     14 C          60.1919   94.2006    0.5410 C.3     1  UNL1        0.0902
     15 C          58.7309   93.9164    0.3548 C.3     1  UNL1        0.0301
     16 C          57.9338   94.7073   -0.6397 C.3     1  UNL1        0.0729
     17 C          61.5912   94.0992    1.0719 C.ar    1  UNL1       -0.0145
     18 C          62.3199   95.3361    1.5065 C.ar    1  UNL1       -0.0038
     19 C          63.7191   95.2348    2.0374 C.ar    1  UNL1       -0.0003
     20 C          64.3896   93.8965    2.1338 C.ar    1  UNL1       -0.0000
     21 C          63.6609   92.6595    1.6993 C.ar    1  UNL1       -0.0003
     22 C          62.2616   92.7608    1.1683 C.ar    1  UNL1       -0.0038
     23 C          56.4905   96.0430   -2.9454 C.3     1  UNL1        0.0188
     24 C          57.8005   96.5732   -2.4426 C.3     1  UNL1        0.0721
     25 C          59.1181   88.9659    6.9593 C.3     1  UNL1        0.0992
     26 C          59.9506   88.9346    8.2067 C.ar    1  UNL1       -0.0031
     27 C          60.7045   90.1583    8.6362 C.ar    1  UNL1       -0.0027
     28 C          61.5370   90.1269    9.8836 C.ar    1  UNL1        0.0029
     29 C          61.6155   88.8721   10.7016 C.ar    1  UNL1        0.0375
     30 C          60.8615   87.6485   10.2721 C.ar    1  UNL1        0.1452
     31 C          60.0291   87.6797    9.0247 C.ar    1  UNL1        0.0346
     32 O          60.9401   86.3936   11.0901 O.3     1  UNL1       -0.4504
     33 C          62.0356   85.4007   10.8371 C.ar    1  UNL1        0.1789
     34 C          62.5116   85.1497    9.4369 C.ar    1  UNL1        0.0406
     35 C          63.6071   84.1567    9.1840 C.ar    1  UNL1        0.0033
     36 C          64.2264   83.4148   10.3310 C.ar    1  UNL1        0.0033
     37 C          63.7504   83.6658   11.7312 C.ar    1  UNL1        0.0401
     38 C          62.6550   84.6587   11.9842 C.ar    1  UNL1        0.1730
     39 O          62.1790   84.9097   13.3844 O.3     1  UNL1       -0.4684
     40 C          62.4838   83.9195   14.4690 C.3     1  UNL1        0.2526
@<TRIPOS>BOND
     1    23    24    1
     2    24    11    1
     3    11    12    1
     4    12    13    1
     5    13    14    1
     6    14     7    1
     7     7     8    2
     8     7     9   am
     9     9     1    1
    10     1     2    1
    11     2     3    1
    12     3     4    1
    13     4    25    1
    14    25    26    1
    15    26    27   ar
    16    27    28   ar
    17    28    29   ar
    18    29    30   ar
    19    30    32    1
    20    32    33    1
    21    33    34   ar
    22    34    35   ar
    23    35    36   ar
    24    36    37   ar
    25    37    38   ar
    26    38    39    1
    27    39    40    1
    28    30    31   ar
    29     4     5    1
    30     5     6    1
    31    14    17    1
    32    17    18   ar
    33    18    19   ar
    34    19    20   ar
    35    20    21   ar
    36    21    22   ar
    37    14    15    1
    38    15    16    1
    39    16    11    1
    40     6     1    1
    41    22    17   ar
    42    31    26   ar
    43    38    33   ar
    44     9    10    1
@<TRIPOS>MOLECULE
*****
 40 44 0 0 0
SMALL
GASTEIGER

@<TRIPOS>ATOM
      1 C          64.1854   90.0495   13.3101 C.3     1  UNL1        0.0743
      2 C          64.6691   89.2947   14.5128 C.3     1  UNL1        0.0369
      3 C          64.3898   87.8263   14.6389 C.3     1  UNL1        0.0741
      4 N          63.6270   87.1128   13.5624 N.3     1  UNL1       -0.2688
      5 C          63.1433   87.8676   12.3597 C.3     1  UNL1        0.0741
      6 C          63.4226   89.3360   12.2336 C.3     1  UNL1        0.0369
      7 C          65.8153   91.9883   12.7318 C.2     1  UNL1        0.2254
      8 O          66.8867   90.9905   12.4059 O.2     1  UNL1       -0.2748
      9 N          64.4647   91.5179   13.1839 N.am    1  UNL1       -0.3056
     10 H          63.7614   92.1729   13.3979 H       1  UNL1        0.1494
     11 N          65.6588   95.7225   10.6883 N.3     1  UNL1       -0.2726
     12 C          66.3688   95.9651   11.9871 C.3     1  UNL1        0.0729
     13 C          66.5867   94.8323   12.9458 C.3     1  UNL1        0.0301
     14 C          66.0945   93.4567   12.6057 C.3     1  UNL1        0.0902
     15 C          65.3845   93.2141   11.3069 C.3     1  UNL1        0.0301
     16 C          65.1666   94.3470   10.3482 C.3     1  UNL1        0.0729
     17 C          66.7076   93.1894   13.9483 C.ar    1  UNL1       -0.0145
     18 C          65.8287   92.9697   15.1438 C.ar    1  UNL1       -0.0038
     19 C          66.4417   92.7024   16.4865 C.ar    1  UNL1       -0.0003
     20 C          67.9337   92.6548   16.6336 C.ar    1  UNL1       -0.0000
     21 C          68.8127   92.8745   15.4381 C.ar    1  UNL1       -0.0003
     22 C          68.1996   93.1418   14.0955 C.ar    1  UNL1       -0.0038
     23 C          65.9324   96.7473    8.3166 C.3     1  UNL1        0.0188
     24 C          65.4409   96.8554    9.7296 C.3     1  UNL1        0.0721
     25 C          63.3477   85.6444   13.6886 C.3     1  UNL1        0.0992
     26 C          63.5205   84.7435   12.5018 C.ar    1  UNL1       -0.0031
     27 C          64.1146   83.3773   12.6773 C.ar    1  UNL1       -0.0027
     28 C          64.2873   82.4764   11.4905 C.ar    1  UNL1        0.0029
     29 C          63.8660   82.9416   10.1281 C.ar    1  UNL1        0.0375
     30 C          63.2719   84.3077    9.9526 C.ar    1  UNL1        0.1452
     31 C          63.0991   85.2087   11.1394 C.ar    1  UNL1        0.0346
     32 O          62.8506   84.7729    8.5902 O.3     1  UNL1       -0.4504
     33 C          61.7996   85.8341    8.4517 C.ar    1  UNL1        0.1789
     34 C          61.8455   87.0534    9.3243 C.ar    1  UNL1        0.0406
     35 C          60.7944   88.1146    9.1857 C.ar    1  UNL1        0.0033
     36 C          59.6978   87.9567    8.1748 C.ar    1  UNL1        0.0033
     37 C          59.6519   86.7374    7.3021 C.ar    1  UNL1        0.0401
     38 C          60.7029   85.6762    7.4407 C.ar    1  UNL1        0.1730
     39 O          60.6571   84.4569    6.5681 O.3     1  UNL1       -0.4684
     40 C          61.7084   84.2452    5.5194 C.3     1  UNL1        0.2526
@<TRIPOS>BOND
     1    23    24    1
     2    24    11    1
     3    11    12    1
     4    12    13    1
     5    13    14    1
     6    14     7    1
     7     7     8    2
     8     7     9   am
     9     9     1    1
    10     1     2    1
    11     2     3    1
    12     3     4    1
    13     4    25    1
    14    25    26    1
    15    26    27   ar
    16    27    28   ar
    17    28    29   ar
    18    29    30   ar
    19    30    32    1
    20    32    33    1
    21    33    34   ar
    22    34    35   ar
    23    35    36   ar
    24    36    37   ar
    25    37    38   ar
    26    38    39    1
    27    39    40    1
    28    30    31   ar
    29     4     5    1
    30     5     6    1
    31    14    17    1
    32    17    18   ar
    33    18    19   ar
    34    19    20   ar
    35    20    21   ar
    36    21    22   ar
    37    14    15    1
    38    15    16    1
    39    16    11    1
    40     6     1    1
    41    22    17   ar
    42    31    26   ar
    43    38    33   ar
    44     9    10    1
@<TRIPOS>MOLECULE
*****
 40 44 0 0 0
SMALL
GASTEIGER

@<TRIPOS>ATOM
      1 C          63.6325   87.3525   14.8403 C.3     1  UNL1        0.0743
      2 C          64.3338   88.3363   13.9513 C.3     1  UNL1        0.0369
      3 C          64.5769   89.7376   14.4282 C.3     1  UNL1        0.0741
      4 N          64.1185   90.1550   15.7941 N.3     1  UNL1       -0.2688
      5 C          63.4172   89.1712   16.6831 C.3     1  UNL1        0.0741
      6 C          63.1742   87.7699   16.2062 C.3     1  UNL1        0.0369
      7 C          63.1249   85.6888   12.9104 C.2     1  UNL1        0.2254
      8 O          63.1035   86.8276   11.9344 O.2     1  UNL1       -0.2748
      9 N          63.3894   85.9513   14.3634 N.am    1  UNL1       -0.3056
     10 H          63.4035   85.2038   15.0040 H       1  UNL1        0.1494
     11 N          63.1144   81.4576   13.4017 N.3     1  UNL1       -0.2726
     12 C          62.6088   81.7376   12.0175 C.3     1  UNL1        0.0729
     13 C          62.4926   83.1526   11.5334 C.3     1  UNL1        0.0301
     14 C          62.8819   84.2875   12.4335 C.3     1  UNL1        0.0902
     15 C          63.3874   84.0076   13.8177 C.3     1  UNL1        0.0301
     16 C          63.5037   82.5926   14.3017 C.3     1  UNL1        0.0729
     17 C          62.4607   85.0542   11.2149 C.ar    1  UNL1       -0.0145
     18 C          61.3113   86.0147   11.2932 C.ar    1  UNL1       -0.0038
     19 C          60.8901   86.7813   10.0746 C.ar    1  UNL1       -0.0003
     20 C          61.6185   86.5874    8.7778 C.ar    1  UNL1       -0.0000
     21 C          62.7680   85.6269    8.6994 C.ar    1  UNL1       -0.0003
     22 C          63.1891   84.8603    9.9180 C.ar    1  UNL1       -0.0038
     23 C          62.4157   78.9604   13.2419 C.3     1  UNL1        0.0188
     24 C          63.2306   80.0426   13.8857 C.3     1  UNL1        0.0721
     25 C          64.3616   91.5563   16.2710 C.3     1  UNL1        0.0992
     26 C          65.5100   92.3478   15.7190 C.ar    1  UNL1       -0.0031
     27 C          66.7881   92.4573   16.4967 C.ar    1  UNL1       -0.0027
     28 C          67.9364   93.2488   15.9446 C.ar    1  UNL1        0.0029
     29 C          67.8068   93.9308   14.6149 C.ar    1  UNL1        0.0375
     30 C          66.5287   93.8213   13.8373 C.ar    1  UNL1        0.1452
     31 C          65.3803   93.0298   14.3893 C.ar    1  UNL1        0.0346
     32 O          66.3991   94.5034   12.5077 O.3     1  UNL1       -0.4504
     33 C          67.0413   93.9044   11.2916 C.ar    1  UNL1        0.1789
     34 C          67.4444   92.4595   11.2912 C.ar    1  UNL1        0.0406
     35 C          68.0866   91.8605   10.0751 C.ar    1  UNL1        0.0033
     36 C          68.3257   92.7062    8.8596 C.ar    1  UNL1        0.0033
     37 C          67.9226   94.1510    8.8601 C.ar    1  UNL1        0.0401
     38 C          67.2804   94.7500   10.0761 C.ar    1  UNL1        0.1730
     39 O          66.8773   96.1949   10.0765 O.3     1  UNL1       -0.4684
     40 C          65.4523   96.5761    9.8053 C.3     1  UNL1        0.2526
@<TRIPOS>BOND
     1    23    24    1
     2    24    11    1
     3    11    12    1
     4    12    13    1
     5    13    14    1
     6    14     7    1
     7     7     8    2
     8     7     9   am
     9     9     1    1
    10     1     2    1
    11     2     3    1
    12     3     4    1
    13     4    25    1
    14    25    26    1
    15    26    27   ar
    16    27    28   ar
    17    28    29   ar
    18    29    30   ar
    19    30    32    1
    20    32    33    1
    21    33    34   ar
    22    34    35   ar
    23    35    36   ar
    24    36    37   ar
    25    37    38   ar
    26    38    39    1
    27    39    40    1
    28    30    31   ar
    29     4     5    1
    30     5     6    1
    31    14    17    1
    32    17    18   ar
    33    18    19   ar
    34    19    20   ar
    35    20    21   ar
    36    21    22   ar
    37    14    15    1
    38    15    16    1
    39    16    11    1
    40     6     1    1
    41    22    17   ar
    42    31    26   ar
    43    38    33   ar
    44     9    10    1
@<TRIPOS>MOLECULE
*****
 40 44 0 0 0
SMALL
GASTEIGER

@<TRIPOS>ATOM
      1 C          62.7209   86.4553   12.1075 C.3     1  UNL1        0.0743
      2 C          62.1880   87.0854   10.8549 C.3     1  UNL1        0.0369
      3 C          62.4273   88.5419   10.5876 C.3     1  UNL1        0.0741
      4 N          63.1994   89.3682   11.5730 N.3     1  UNL1       -0.2688
      5 C          63.7323   88.7382   12.8256 C.3     1  UNL1        0.0741
      6 C          63.4930   87.2817   13.0929 C.3     1  UNL1        0.0369
      7 C          63.4000   83.9680   11.7885 C.2     1  UNL1        0.2254
      8 O          64.5577   84.3935   10.9350 O.2     1  UNL1       -0.2748
      9 N          62.4816   84.9988   12.3748 N.am    1  UNL1       -0.3056
     10 H          61.7217   84.7195   12.9350 H       1  UNL1        0.1494
     11 N          62.8342   79.9256   10.5702 N.3     1  UNL1       -0.2726
     12 C          62.7619   79.9442   12.0683 C.3     1  UNL1        0.0729
     13 C          62.9252   81.2371   12.8111 C.3     1  UNL1        0.0301
     14 C          63.1607   82.5114   12.0558 C.3     1  UNL1        0.0902
     15 C          63.2330   82.4929   10.5577 C.3     1  UNL1        0.0301
     16 C          63.0697   81.2000    9.8149 C.3     1  UNL1        0.0729
     17 C          63.1716   83.0358   13.4612 C.ar    1  UNL1       -0.0145
     18 C          61.9466   82.9110   14.3177 C.ar    1  UNL1       -0.0038
     19 C          61.9573   83.4354   15.7230 C.ar    1  UNL1       -0.0003
     20 C          63.1932   84.0846   16.2717 C.ar    1  UNL1       -0.0000
     21 C          64.4183   84.2094   15.4152 C.ar    1  UNL1       -0.0003
     22 C          64.4074   83.6850   14.0099 C.ar    1  UNL1       -0.0038
     23 C          62.9823   77.3326   10.5075 C.3     1  UNL1        0.0188
     24 C          62.6710   78.6327    9.8274 C.3     1  UNL1        0.0721
     25 C          63.4387   90.8247   11.3057 C.3     1  UNL1        0.0992
     26 C          64.3702   91.6054   12.1849 C.ar    1  UNL1       -0.0031
     27 C          64.4322   91.3165   13.6556 C.ar    1  UNL1       -0.0027
     28 C          65.3636   92.0972   14.5346 C.ar    1  UNL1        0.0029
     29 C          66.2332   93.1668   13.9432 C.ar    1  UNL1        0.0375
     30 C          66.1712   93.4557   12.4725 C.ar    1  UNL1        0.1452
     31 C          65.2397   92.6750   11.5934 C.ar    1  UNL1        0.0346
     32 O          67.0407   94.5253   11.8811 O.3     1  UNL1       -0.4504
     33 C          66.6442   95.1888   10.5956 C.ar    1  UNL1        0.1789
     34 C          65.4504   96.0963   10.5572 C.ar    1  UNL1        0.0406
     35 C          65.0539   96.7598    9.2716 C.ar    1  UNL1        0.0033
     36 C          65.8510   96.5158    8.0247 C.ar    1  UNL1        0.0033
     37 C          67.0447   95.6083    8.0631 C.ar    1  UNL1        0.0401
     38 C          67.4412   94.9448    9.3486 C.ar    1  UNL1        0.1730
     39 O          68.6350   94.0373    9.3870 O.3     1  UNL1       -0.4684
     40 C          68.4606   92.5601    9.1948 C.3     1  UNL1        0.2526
@<TRIPOS>BOND
     1    23    24    1
     2    24    11    1
     3    11    12    1
     4    12    13    1
     5    13    14    1
     6    14     7    1
     7     7     8    2
     8     7     9   am
     9     9     1    1
    10     1     2    1
    11     2     3    1
    12     3     4    1
    13     4    25    1
    14    25    26    1
    15    26    27   ar
    16    27    28   ar
    17    28    29   ar
    18    29    30   ar
    19    30    32    1
    20    32    33    1
    21    33    34   ar
    22    34    35   ar
    23    35    36   ar
    24    36    37   ar
    25    37    38   ar
    26    38    39    1
    27    39    40    1
    28    30    31   ar
    29     4     5    1
    30     5     6    1
    31    14    17    1
    32    17    18   ar
    33    18    19   ar
    34    19    20   ar
    35    20    21   ar
    36    21    22   ar
    37    14    15    1
    38    15    16    1
    39    16    11    1
    40     6     1    1
    41    22    17   ar
    42    31    26   ar
    43    38    33   ar
    44     9    10    1
@<TRIPOS>MOLECULE
*****
 40 44 0 0 0
SMALL
GASTEIGER

@<TRIPOS>ATOM
      1 C          62.1389   85.8743   11.1791 C.3     1  UNL1        0.0743
      2 C          61.6484   86.3326    9.8378 C.3     1  UNL1        0.0369
      3 C          61.7790   87.7740    9.4438 C.3     1  UNL1        0.0741
      4 N          62.4001   88.7571   10.3913 N.3     1  UNL1       -0.2688
      5 C          62.8906   88.2988   11.7327 C.3     1  UNL1        0.0741
      6 C          62.7600   86.8573   12.1267 C.3     1  UNL1        0.0369
      7 C          63.1985   83.5233   11.4955 C.2     1  UNL1        0.2254
      8 O          64.5194   84.0552   11.0240 O.2     1  UNL1       -0.2748
      9 N          62.0082   84.4328   11.5731 N.am    1  UNL1       -0.3056
     10 H          61.1413   84.0837   11.8825 H       1  UNL1        0.1494
     11 N          62.8149   79.3697   10.6323 N.3     1  UNL1       -0.2726
     12 C          62.8327   79.5052   12.1260 C.3     1  UNL1        0.0729
     13 C          62.9592   80.8613   12.7545 C.3     1  UNL1        0.0301
     14 C          63.0679   82.0818   11.8894 C.3     1  UNL1        0.0902
     15 C          63.0501   81.9462   10.3957 C.3     1  UNL1        0.0301
     16 C          62.9236   80.5902    9.7671 C.3     1  UNL1        0.0729
     17 C          63.1311   82.7180   13.2464 C.ar    1  UNL1       -0.0145
     18 C          61.9447   82.6516   14.1618 C.ar    1  UNL1       -0.0038
     19 C          62.0078   83.2878   15.5187 C.ar    1  UNL1       -0.0003
     20 C          63.2574   83.9903   15.9602 C.ar    1  UNL1       -0.0000
     21 C          64.4439   84.0566   15.0449 C.ar    1  UNL1       -0.0003
     22 C          64.3807   83.4205   13.6879 C.ar    1  UNL1       -0.0038
     23 C          63.2029   76.8024   10.7234 C.3     1  UNL1        0.0188
     24 C          62.6884   78.0136   10.0037 C.3     1  UNL1        0.0721
     25 C          62.5308   90.1986    9.9974 C.3     1  UNL1        0.0992
     26 C          63.5130   91.0836   10.7059 C.ar    1  UNL1       -0.0031
     27 C          64.1534   92.2277    9.9771 C.ar    1  UNL1       -0.0027
     28 C          65.1355   93.1127   10.6857 C.ar    1  UNL1        0.0029
     29 C          65.4774   92.8537   12.1230 C.ar    1  UNL1        0.0375
     30 C          64.8370   91.7096   12.8519 C.ar    1  UNL1        0.1452
     31 C          63.8548   90.8246   12.1434 C.ar    1  UNL1        0.0346
     32 O          65.1789   91.4507   14.2892 O.3     1  UNL1       -0.4504
     33 C          64.5376   90.3076   15.0186 C.ar    1  UNL1        0.1789
     34 C          64.7593   88.9001   14.5497 C.ar    1  UNL1        0.0406
     35 C          64.1179   87.7569   15.2792 C.ar    1  UNL1        0.0033
     36 C          63.2551   88.0212   16.4772 C.ar    1  UNL1        0.0033
     37 C          63.0334   89.4288   16.9461 C.ar    1  UNL1        0.0401
     38 C          63.6747   90.5719   16.2167 C.ar    1  UNL1        0.1730
     39 O          63.4531   91.9794   16.6855 O.3     1  UNL1       -0.4684
     40 C          64.6037   92.7844   17.2126 C.3     1  UNL1        0.2526
@<TRIPOS>BOND
     1    23    24    1
     2    24    11    1
     3    11    12    1
     4    12    13    1
     5    13    14    1
     6    14     7    1
     7     7     8    2
     8     7     9   am
     9     9     1    1
    10     1     2    1
    11     2     3    1
    12     3     4    1
    13     4    25    1
    14    25    26    1
    15    26    27   ar
    16    27    28   ar
    17    28    29   ar
    18    29    30   ar
    19    30    32    1
    20    32    33    1
    21    33    34   ar
    22    34    35   ar
    23    35    36   ar
    24    36    37   ar
    25    37    38   ar
    26    38    39    1
    27    39    40    1
    28    30    31   ar
    29     4     5    1
    30     5     6    1
    31    14    17    1
    32    17    18   ar
    33    18    19   ar
    34    19    20   ar
    35    20    21   ar
    36    21    22   ar
    37    14    15    1
    38    15    16    1
    39    16    11    1
    40     6     1    1
    41    22    17   ar
    42    31    26   ar
    43    38    33   ar
    44     9    10    1
@<TRIPOS>MOLECULE
*****
 40 44 0 0 0
SMALL
GASTEIGER

@<TRIPOS>ATOM
      1 C          62.6857   86.9816   12.0862 C.3     1  UNL1        0.0743
      2 C          63.3791   88.0583   12.8672 C.3     1  UNL1        0.0369
      3 C          63.5363   89.4290   12.2785 C.3     1  UNL1        0.0741
      4 N          63.0002   89.7229   10.9087 N.3     1  UNL1       -0.2688
      5 C          62.3068   88.6462   10.1277 C.3     1  UNL1        0.0741
      6 C          62.1496   87.2755   10.7165 C.3     1  UNL1        0.0369
      7 C          63.3169   84.4616   12.1205 C.2     1  UNL1        0.2254
      8 O          64.2625   84.6829   10.9774 O.2     1  UNL1       -0.2748
      9 N          62.5285   85.6110   12.6749 N.am    1  UNL1       -0.3056
     10 H          61.9078   85.4657   13.4252 H       1  UNL1        0.1494
     11 N          62.7892   80.2442   11.8381 N.3     1  UNL1       -0.2726
     12 C          62.8611   80.5783   13.2986 C.3     1  UNL1        0.0729
     13 C          63.0463   82.0017   13.7342 C.3     1  UNL1        0.0301
     14 C          63.1596   83.0909   12.7093 C.3     1  UNL1        0.0902
     15 C          63.0878   82.7569   11.2487 C.3     1  UNL1        0.0301
     16 C          62.9026   81.3335   10.8132 C.3     1  UNL1        0.0729
     17 C          63.2861   83.9011   13.9654 C.ar    1  UNL1       -0.0145
     18 C          64.5614   84.6336   14.2601 C.ar    1  UNL1       -0.0038
     19 C          64.6880   85.4437   15.5162 C.ar    1  UNL1       -0.0003
     20 C          63.5391   85.5212   16.4775 C.ar    1  UNL1       -0.0000
     21 C          62.2638   84.7887   16.1828 C.ar    1  UNL1       -0.0003
     22 C          62.1373   83.9786   14.9267 C.ar    1  UNL1       -0.0038
     23 C          62.7737   78.4501    9.9590 C.3     1  UNL1        0.0188
     24 C          62.6040   78.8208   11.4025 C.3     1  UNL1        0.0721
     25 C          63.1574   91.0935   10.3200 C.3     1  UNL1        0.0992
     26 C          64.3390   91.9390   10.6931 C.ar    1  UNL1       -0.0031
     27 C          65.3808   92.2675    9.6650 C.ar    1  UNL1       -0.0027
     28 C          66.5623   93.1130   10.0382 C.ar    1  UNL1        0.0029
     29 C          66.7021   93.6299   11.4393 C.ar    1  UNL1        0.0375
     30 C          65.6603   93.3014   12.4673 C.ar    1  UNL1        0.1452
     31 C          64.4788   92.4559   12.0942 C.ar    1  UNL1        0.0346
     32 O          65.8001   93.8184   13.8684 O.3     1  UNL1       -0.4504
     33 C          66.9287   93.3426   14.7343 C.ar    1  UNL1        0.1789
     34 C          68.0156   94.2938   15.1394 C.ar    1  UNL1        0.0406
     35 C          69.1443   93.8180   16.0054 C.ar    1  UNL1        0.0033
     36 C          69.1861   92.3913   16.4662 C.ar    1  UNL1        0.0033
     37 C          68.0992   91.4401   16.0612 C.ar    1  UNL1        0.0401
     38 C          66.9706   91.9158   15.1952 C.ar    1  UNL1        0.1730
     39 O          65.8837   90.9646   14.7902 O.3     1  UNL1       -0.4684
     40 C          64.5240   91.0695   15.4147 C.3     1  UNL1        0.2526
@<TRIPOS>BOND
     1    23    24    1
     2    24    11    1
     3    11    12    1
     4    12    13    1
     5    13    14    1
     6    14     7    1
     7     7     8    2
     8     7     9   am
     9     9     1    1
    10     1     2    1
    11     2     3    1
    12     3     4    1
    13     4    25    1
    14    25    26    1
    15    26    27   ar
    16    27    28   ar
    17    28    29   ar
    18    29    30   ar
    19    30    32    1
    20    32    33    1
    21    33    34   ar
    22    34    35   ar
    23    35    36   ar
    24    36    37   ar
    25    37    38   ar
    26    38    39    1
    27    39    40    1
    28    30    31   ar
    29     4     5    1
    30     5     6    1
    31    14    17    1
    32    17    18   ar
    33    18    19   ar
    34    19    20   ar
    35    20    21   ar
    36    21    22   ar
    37    14    15    1
    38    15    16    1
    39    16    11    1
    40     6     1    1
    41    22    17   ar
    42    31    26   ar
    43    38    33   ar
    44     9    10    1
@<TRIPOS>MOLECULE
*****
 40 44 0 0 0
SMALL
GASTEIGER

@<TRIPOS>ATOM
      1 C          62.6230   88.9159   12.5941 C.3     1  UNL1        0.0743
      2 C          63.5147   87.9909   13.3681 C.3     1  UNL1        0.0369
      3 C          64.4623   88.5442   14.3910 C.3     1  UNL1        0.0741
      4 N          64.5179   90.0223   14.6397 N.3     1  UNL1       -0.2688
      5 C          63.6262   90.9473   13.8657 C.3     1  UNL1        0.0741
      6 C          62.6786   90.3941   12.8428 C.3     1  UNL1        0.0369
      7 C          62.0536   88.3652   10.1197 C.2     1  UNL1        0.2254
      8 O          63.3793   88.9208    9.6910 O.2     1  UNL1       -0.2748
      9 N          61.6754   88.3627   11.5712 N.am    1  UNL1       -0.3056
     10 H          60.8054   87.9980   11.8526 H       1  UNL1        0.1494
     11 N          58.9801   88.7396    7.1943 N.3     1  UNL1       -0.2726
     12 C          59.3322   87.2837    7.2737 C.3     1  UNL1        0.0729
     13 C          60.3952   86.8199    8.2250 C.3     1  UNL1        0.0301
     14 C          61.1061   87.8120    9.0968 C.3     1  UNL1        0.0902
     15 C          60.7540   89.2679    9.0175 C.3     1  UNL1        0.0301
     16 C          59.6910   89.7317    8.0662 C.3     1  UNL1        0.0729
     17 C          61.7873   86.5481    9.5314 C.ar    1  UNL1       -0.0145
     18 C          62.7444   85.8559    8.6070 C.ar    1  UNL1       -0.0038
     19 C          63.4255   84.5921    9.0415 C.ar    1  UNL1       -0.0003
     20 C          63.1495   84.0206   10.4006 C.ar    1  UNL1       -0.0000
     21 C          62.1924   84.7128   11.3251 C.ar    1  UNL1       -0.0003
     22 C          61.5113   85.9766   10.8905 C.ar    1  UNL1       -0.0038
     23 C          58.0512   90.5309    5.5578 C.3     1  UNL1        0.0188
     24 C          57.9171   89.2034    6.2431 C.3     1  UNL1        0.0721
     25 C          65.4655   90.5756   15.6626 C.3     1  UNL1        0.0992
     26 C          66.2623   91.8091   15.3571 C.ar    1  UNL1       -0.0031
     27 C          67.3496   92.2503   16.2916 C.ar    1  UNL1       -0.0027
     28 C          68.1464   93.4839   15.9860 C.ar    1  UNL1        0.0029
     29 C          67.8560   94.2764   14.7460 C.ar    1  UNL1        0.0375
     30 C          66.7687   93.8352   13.8115 C.ar    1  UNL1        0.1452
     31 C          65.9719   92.6016   14.1170 C.ar    1  UNL1        0.0346
     32 O          66.4783   94.6276   12.5715 O.3     1  UNL1       -0.4504
     33 C          67.0078   94.1671   11.2458 C.ar    1  UNL1        0.1789
     34 C          67.4696   92.7503   11.0739 C.ar    1  UNL1        0.0406
     35 C          67.9991   92.2897    9.7482 C.ar    1  UNL1        0.0033
     36 C          68.0668   93.2458    8.5945 C.ar    1  UNL1        0.0033
     37 C          67.6050   94.6626    8.7663 C.ar    1  UNL1        0.0401
     38 C          67.0755   95.1231   10.0920 C.ar    1  UNL1        0.1730
     39 O          66.6137   96.5400   10.2639 O.3     1  UNL1       -0.4684
     40 C          65.1475   96.8558   10.2667 C.3     1  UNL1        0.2526
@<TRIPOS>BOND
     1    23    24    1
     2    24    11    1
     3    11    12    1
     4    12    13    1
     5    13    14    1
     6    14     7    1
     7     7     8    2
     8     7     9   am
     9     9     1    1
    10     1     2    1
    11     2     3    1
    12     3     4    1
    13     4    25    1
    14    25    26    1
    15    26    27   ar
    16    27    28   ar
    17    28    29   ar
    18    29    30   ar
    19    30    32    1
    20    32    33    1
    21    33    34   ar
    22    34    35   ar
    23    35    36   ar
    24    36    37   ar
    25    37    38   ar
    26    38    39    1
    27    39    40    1
    28    30    31   ar
    29     4     5    1
    30     5     6    1
    31    14    17    1
    32    17    18   ar
    33    18    19   ar
    34    19    20   ar
    35    20    21   ar
    36    21    22   ar
    37    14    15    1
    38    15    16    1
    39    16    11    1
    40     6     1    1
    41    22    17   ar
    42    31    26   ar
    43    38    33   ar
    44     9    10    1
