@<TRIPOS>MOLECULE
*****
 26 29 0 0 0
SMALL
GASTEIGER

@<TRIPOS>ATOM
      1 C          65.0870   92.2489   12.3984 C.ar    1  UNL1        0.0542
      2 C          64.9320   92.3834   10.9125 C.ar    1  UNL1        0.0150
      3 C          63.9948   91.4768   10.1711 C.ar    1  UNL1        0.0033
      4 C          63.2125   90.4357   10.9156 C.ar    1  UNL1        0.0239
      5 C          63.3675   90.3012   12.4014 C.ar    1  UNL1        0.0033
      6 C          64.3047   91.2078   13.1428 C.ar    1  UNL1        0.0150
      7 C          62.2753   89.5291   10.1741 C.ar    1  UNL1        0.1107
      8 N          61.0818   89.9588    9.3736 N.ar    1  UNL1       -0.2383
      9 C          60.4359   88.7289    8.8078 C.ar    1  UNL1        0.0878
     10 C          59.2271   88.5387    7.9402 C.ar    1  UNL1        0.0196
     11 C          58.8126   87.1587    7.5236 C.ar    1  UNL1        0.0016
     12 C          59.6069   85.9688    7.9745 C.ar    1  UNL1        0.0006
     13 C          60.8157   86.1590    8.8420 C.ar    1  UNL1        0.0080
     14 C          61.2302   87.5390    9.2586 C.ar    1  UNL1        0.0485
     15 S          62.3670   88.0336   10.1031 S.2     1  UNL1       -0.0665
     16 C          67.7408   93.5401   15.0517 C.3     1  UNL1        0.0952
     17 C          66.8036   92.6335   14.3103 C.2     1  UNL1        0.2301
     18 O          66.6458   91.2048   14.7393 O.2     1  UNL1       -0.2745
     19 N          66.0242   93.1555   13.1398 N.am    1  UNL1       -0.2528
     20 C          66.1820   94.5841   12.7108 C.3     1  UNL1        0.1432
     21 C          66.5027   94.9069   11.2815 C.ar    1  UNL1        0.0749
     22 C          65.8069   95.9275   10.4305 C.ar    1  UNL1        0.1148
     23 N          66.4497   95.9172    9.0753 N.ar    1  UNL1       -0.2228
     24 C          67.5428   94.8901    9.0886 C.ar    1  UNL1        0.1748
     25 N          67.5757   94.2657   10.4521 N.ar    1  UNL1       -0.3369
     26 H          68.1930   93.5591   10.7503 H       1  UNL1        0.1672
@<TRIPOS>BOND
     1    16    17    1
     2    17    18    2
     3    17    19   am
     4    19    20    1
     5    20    21    1
     6    21    22   ar
     7    22    23   ar
     8    23    24   ar
     9    24    25   ar
    10    19     1    1
    11     1     2   ar
    12     2     3   ar
    13     3     4   ar
    14     4     7    1
    15     7     8   ar
    16     8     9   ar
    17     9    10   ar
    18    10    11   ar
    19    11    12   ar
    20    12    13   ar
    21    13    14   ar
    22    14    15   ar
    23     4     5   ar
    24     5     6   ar
    25    25    21   ar
    26     6     1   ar
    27    15     7   ar
    28    14     9   ar
    29    25    26    1
@<TRIPOS>MOLECULE
*****
 26 29 0 0 0
SMALL
GASTEIGER

@<TRIPOS>ATOM
      1 C          64.5925   91.0092   13.5058 C.ar    1  UNL1        0.0542
      2 C          64.0751   91.6846   12.2705 C.ar    1  UNL1        0.0150
      3 C          63.2484   90.9136   11.2845 C.ar    1  UNL1        0.0033
      4 C          62.9391   89.4672   11.5339 C.ar    1  UNL1        0.0239
      5 C          63.4564   88.7918   12.7692 C.ar    1  UNL1        0.0033
      6 C          64.2831   89.5628   13.7552 C.ar    1  UNL1        0.0150
      7 C          62.1124   88.6963   10.5479 C.ar    1  UNL1        0.1107
      8 N          62.4698   87.3709    9.9432 N.ar    1  UNL1       -0.2383
      9 C          61.3614   86.9708    9.0151 C.ar    1  UNL1        0.0878
     10 C          61.1668   85.7641    8.1457 C.ar    1  UNL1        0.0196
     11 C          59.9296   85.6354    7.3073 C.ar    1  UNL1        0.0016
     12 C          58.8871   86.7135    7.3384 C.ar    1  UNL1        0.0006
     13 C          59.0818   87.9202    8.2078 C.ar    1  UNL1        0.0080
     14 C          60.3190   88.0489    9.0461 C.ar    1  UNL1        0.0485
     15 S          60.7831   89.1152    9.9935 S.2     1  UNL1       -0.0665
     16 C          65.7489   92.7516   16.8788 C.3     1  UNL1        0.0952
     17 C          64.9222   91.9806   15.8928 C.2     1  UNL1        0.2301
     18 O          63.5984   91.4101   16.3078 O.2     1  UNL1       -0.2745
     19 N          65.4192   91.7802   14.4918 N.am    1  UNL1       -0.2528
     20 C          66.7429   92.3507   14.0768 C.3     1  UNL1        0.1432
     21 C          66.8812   93.0367   12.7500 C.ar    1  UNL1        0.0749
     22 C          66.3777   94.4081   12.4098 C.ar    1  UNL1        0.1148
     23 N          66.7326   94.6906   10.9800 N.ar    1  UNL1       -0.2228
     24 C          67.4553   93.4938   10.4366 C.ar    1  UNL1        0.1748
     25 N          67.5472   92.4716   11.5305 N.ar    1  UNL1       -0.3369
     26 H          67.9703   91.5854   11.4604 H       1  UNL1        0.1672
@<TRIPOS>BOND
     1    16    17    1
     2    17    18    2
     3    17    19   am
     4    19    20    1
     5    20    21    1
     6    21    22   ar
     7    22    23   ar
     8    23    24   ar
     9    24    25   ar
    10    19     1    1
    11     1     2   ar
    12     2     3   ar
    13     3     4   ar
    14     4     7    1
    15     7     8   ar
    16     8     9   ar
    17     9    10   ar
    18    10    11   ar
    19    11    12   ar
    20    12    13   ar
    21    13    14   ar
    22    14    15   ar
    23     4     5   ar
    24     5     6   ar
    25    25    21   ar
    26     6     1   ar
    27    15     7   ar
    28    14     9   ar
    29    25    26    1
@<TRIPOS>MOLECULE
*****
 26 29 0 0 0
SMALL
GASTEIGER

@<TRIPOS>ATOM
      1 C          64.2186   88.9413   14.3201 C.ar    1  UNL1        0.0542
      2 C          63.5369   88.6385   13.0187 C.ar    1  UNL1        0.0150
      3 C          63.2884   87.2152   12.6156 C.ar    1  UNL1        0.0033
      4 C          63.7216   86.0947   13.5138 C.ar    1  UNL1        0.0239
      5 C          64.4033   86.3975   14.8152 C.ar    1  UNL1        0.0033
      6 C          64.6518   87.8208   15.2183 C.ar    1  UNL1        0.0150
      7 C          63.4731   84.6714   13.1107 C.ar    1  UNL1        0.1107
      8 N          63.6376   84.1040   11.7320 N.ar    1  UNL1       -0.2383
      9 C          63.2826   82.6475   11.7847 C.ar    1  UNL1        0.0878
     10 C          63.2593   81.5813   10.7299 C.ar    1  UNL1        0.0196
     11 C          62.8522   80.1824   11.0865 C.ar    1  UNL1        0.0016
     12 C          62.4683   79.8497   12.4979 C.ar    1  UNL1        0.0006
     13 C          62.4915   80.9159   13.5527 C.ar    1  UNL1        0.0080
     14 C          62.8987   82.3148   13.1961 C.ar    1  UNL1        0.0485
     15 S          63.0164   83.5657   14.0156 S.2     1  UNL1       -0.0665
     16 C          64.1474   92.3136   16.4111 C.3     1  UNL1        0.0952
     17 C          63.8989   90.8903   16.0079 C.2     1  UNL1        0.2301
     18 O          63.0821   89.9928   16.8897 O.2     1  UNL1       -0.2745
     19 N          64.4671   90.3646   14.7232 N.am    1  UNL1       -0.2528
     20 C          65.2838   91.2621   13.8415 C.3     1  UNL1        0.1432
     21 C          66.4995   91.9484   14.3903 C.ar    1  UNL1        0.0749
     22 C          66.7781   93.4215   14.3407 C.ar    1  UNL1        0.1148
     23 N          68.1008   93.6656   15.0048 N.ar    1  UNL1       -0.2228
     24 C          68.6396   92.3435   15.4647 C.ar    1  UNL1        0.1748
     25 N          67.6499   91.2821   15.0850 N.ar    1  UNL1       -0.3369
     26 H          67.7397   90.3176   15.2608 H       1  UNL1        0.1672
@<TRIPOS>BOND
     1    16    17    1
     2    17    18    2
     3    17    19   am
     4    19    20    1
     5    20    21    1
     6    21    22   ar
     7    22    23   ar
     8    23    24   ar
     9    24    25   ar
    10    19     1    1
    11     1     2   ar
    12     2     3   ar
    13     3     4   ar
    14     4     7    1
    15     7     8   ar
    16     8     9   ar
    17     9    10   ar
    18    10    11   ar
    19    11    12   ar
    20    12    13   ar
    21    13    14   ar
    22    14    15   ar
    23     4     5   ar
    24     5     6   ar
    25    25    21   ar
    26     6     1   ar
    27    15     7   ar
    28    14     9   ar
    29    25    26    1
@<TRIPOS>MOLECULE
*****
 26 29 0 0 0
SMALL
GASTEIGER

@<TRIPOS>ATOM
      1 C          64.1966   89.3676   13.4363 C.ar    1  UNL1        0.0542
      2 C          63.3933   88.8185   12.2948 C.ar    1  UNL1        0.0150
      3 C          63.0520   87.3585   12.2517 C.ar    1  UNL1        0.0033
      4 C          63.5139   86.4476   13.3502 C.ar    1  UNL1        0.0239
      5 C          64.3172   86.9966   14.4918 C.ar    1  UNL1        0.0033
      6 C          64.6585   88.4566   14.5348 C.ar    1  UNL1        0.0150
      7 C          63.1725   84.9876   13.3072 C.ar    1  UNL1        0.1107
      8 N          62.3738   84.2382   14.3321 N.ar    1  UNL1       -0.2383
      9 C          62.2776   82.8081   13.8900 C.ar    1  UNL1        0.0878
     10 C          61.6123   81.6110   14.5018 C.ar    1  UNL1        0.0196
     11 C          61.6864   80.2793   13.8154 C.ar    1  UNL1        0.0016
     12 C          62.4257   80.1448   12.5172 C.ar    1  UNL1        0.0006
     13 C          63.0909   81.3419   11.9054 C.ar    1  UNL1        0.0080
     14 C          63.0169   82.6735   12.5918 C.ar    1  UNL1        0.0485
     15 S          63.5700   84.0205   12.2316 S.2     1  UNL1       -0.0665
     16 C          64.8744   93.0965   12.2593 C.3     1  UNL1        0.0952
     17 C          64.5330   91.6365   12.2162 C.2     1  UNL1        0.2301
     18 O          64.1867   90.9855   10.9100 O.2     1  UNL1       -0.2745
     19 N          64.5380   90.8276   13.4794 N.am    1  UNL1       -0.2528
     20 C          64.8843   91.4786   14.7855 C.3     1  UNL1        0.1432
     21 C          66.2842   91.9541   15.0387 C.ar    1  UNL1        0.0749
     22 C          66.7358   92.7869   16.2016 C.ar    1  UNL1        0.1148
     23 N          68.2091   93.0277   16.0551 N.ar    1  UNL1       -0.2228
     24 C          68.6681   92.3436   14.8015 C.ar    1  UNL1        0.1748
     25 N          67.4785   91.6800   14.1733 N.ar    1  UNL1       -0.3369
     26 H          67.4811   91.1566   13.3395 H       1  UNL1        0.1672
@<TRIPOS>BOND
     1    16    17    1
     2    17    18    2
     3    17    19   am
     4    19    20    1
     5    20    21    1
     6    21    22   ar
     7    22    23   ar
     8    23    24   ar
     9    24    25   ar
    10    19     1    1
    11     1     2   ar
    12     2     3   ar
    13     3     4   ar
    14     4     7    1
    15     7     8   ar
    16     8     9   ar
    17     9    10   ar
    18    10    11   ar
    19    11    12   ar
    20    12    13   ar
    21    13    14   ar
    22    14    15   ar
    23     4     5   ar
    24     5     6   ar
    25    25    21   ar
    26     6     1   ar
    27    15     7   ar
    28    14     9   ar
    29    25    26    1
@<TRIPOS>MOLECULE
*****
 26 29 0 0 0
SMALL
GASTEIGER

@<TRIPOS>ATOM
      1 C          61.5963   88.5974   10.0863 C.ar    1  UNL1        0.0542
      2 C          62.2236   87.9352   11.2770 C.ar    1  UNL1        0.0150
      3 C          63.1482   88.7121   12.1667 C.ar    1  UNL1        0.0033
      4 C          63.4455   90.1511   11.8657 C.ar    1  UNL1        0.0239
      5 C          62.8182   90.8133   10.6749 C.ar    1  UNL1        0.0033
      6 C          61.8936   90.0365    9.7852 C.ar    1  UNL1        0.0150
      7 C          64.3702   90.9280   12.7554 C.ar    1  UNL1        0.1107
      8 N          65.2052   92.1050   12.3463 N.ar    1  UNL1       -0.2383
      9 C          65.9732   92.5687   13.5485 C.ar    1  UNL1        0.0878
     10 C          66.9541   93.6867   13.7429 C.ar    1  UNL1        0.0196
     11 C          67.5746   93.9142   15.0894 C.ar    1  UNL1        0.0016
     12 C          67.2143   93.0237   16.2415 C.ar    1  UNL1        0.0006
     13 C          66.2334   91.9057   16.0470 C.ar    1  UNL1        0.0080
     14 C          65.6129   91.6782   14.7005 C.ar    1  UNL1        0.0485
     15 S          64.6221   90.6642   14.2103 S.2     1  UNL1       -0.0665
     16 C          58.7898   87.7664    7.4061 C.3     1  UNL1        0.0952
     17 C          59.7144   88.5433    8.2958 C.2     1  UNL1        0.2301
     18 O          59.6818   90.0429    8.2848 O.2     1  UNL1       -0.2745
     19 N          60.6717   87.8206    9.1966 N.am    1  UNL1       -0.2528
     20 C          60.7043   86.3210    9.2076 C.3     1  UNL1        0.1432
     21 C          61.3355   85.5761    8.0688 C.ar    1  UNL1        0.0749
     22 C          62.7925   85.2481    7.9296 C.ar    1  UNL1        0.1148
     23 N          62.9780   84.4977    6.6441 N.ar    1  UNL1       -0.2228
     24 C          61.6356   84.3621    5.9887 C.ar    1  UNL1        0.1748
     25 N          60.6204   85.0285    6.8692 N.ar    1  UNL1       -0.3369
     26 H          59.6544   85.0949    6.6911 H       1  UNL1        0.1672
@<TRIPOS>BOND
     1    16    17    1
     2    17    18    2
     3    17    19   am
     4    19    20    1
     5    20    21    1
     6    21    22   ar
     7    22    23   ar
     8    23    24   ar
     9    24    25   ar
    10    19     1    1
    11     1     2   ar
    12     2     3   ar
    13     3     4   ar
    14     4     7    1
    15     7     8   ar
    16     8     9   ar
    17     9    10   ar
    18    10    11   ar
    19    11    12   ar
    20    12    13   ar
    21    13    14   ar
    22    14    15   ar
    23     4     5   ar
    24     5     6   ar
    25    25    21   ar
    26     6     1   ar
    27    15     7   ar
    28    14     9   ar
    29    25    26    1
@<TRIPOS>MOLECULE
*****
 26 29 0 0 0
SMALL
GASTEIGER

@<TRIPOS>ATOM
      1 C          61.6494   88.6372   10.0869 C.ar    1  UNL1        0.0542
      2 C          62.0443   90.0356    9.7147 C.ar    1  UNL1        0.0150
      3 C          62.9834   90.8086   10.5926 C.ar    1  UNL1        0.0033
      4 C          63.5275   90.1832   11.8427 C.ar    1  UNL1        0.0239
      5 C          63.1326   88.7848   12.2149 C.ar    1  UNL1        0.0033
      6 C          62.1935   88.0119   11.3370 C.ar    1  UNL1        0.0150
      7 C          64.4666   90.9561   12.7205 C.ar    1  UNL1        0.1107
      8 N          64.9401   90.5445   14.0830 N.ar    1  UNL1       -0.2383
      9 C          65.8632   91.6104   14.5946 C.ar    1  UNL1        0.0878
     10 C          66.6279   91.7446   15.8780 C.ar    1  UNL1        0.0196
     11 C          67.4897   92.9492   16.1151 C.ar    1  UNL1        0.0016
     12 C          67.5868   94.0196   15.0687 C.ar    1  UNL1        0.0006
     13 C          66.8220   93.8854   13.7853 C.ar    1  UNL1        0.0080
     14 C          65.9603   92.6808   13.5483 C.ar    1  UNL1        0.0485
     15 S          65.0971   92.2765   12.3900 S.2     1  UNL1       -0.0665
     16 C          58.8112   87.8181    7.4367 C.3     1  UNL1        0.0952
     17 C          59.7503   88.5910    8.3146 C.2     1  UNL1        0.2301
     18 O          59.7293   90.0909    8.2980 O.2     1  UNL1       -0.2745
     19 N          60.7103   87.8643    9.2090 N.am    1  UNL1       -0.2528
     20 C          60.7312   86.3646    9.2256 C.3     1  UNL1        0.1432
     21 C          61.3496   85.6105    8.0859 C.ar    1  UNL1        0.0749
     22 C          62.8012   85.2596    7.9451 C.ar    1  UNL1        0.1148
     23 N          62.9736   84.5071    6.6590 N.ar    1  UNL1       -0.2228
     24 C          61.6286   84.3929    6.0049 C.ar    1  UNL1        0.1748
     25 N          60.6248   85.0748    6.8867 N.ar    1  UNL1       -0.3369
     26 H          59.6598   85.1564    6.7096 H       1  UNL1        0.1672
@<TRIPOS>BOND
     1    16    17    1
     2    17    18    2
     3    17    19   am
     4    19    20    1
     5    20    21    1
     6    21    22   ar
     7    22    23   ar
     8    23    24   ar
     9    24    25   ar
    10    19     1    1
    11     1     2   ar
    12     2     3   ar
    13     3     4   ar
    14     4     7    1
    15     7     8   ar
    16     8     9   ar
    17     9    10   ar
    18    10    11   ar
    19    11    12   ar
    20    12    13   ar
    21    13    14   ar
    22    14    15   ar
    23     4     5   ar
    24     5     6   ar
    25    25    21   ar
    26     6     1   ar
    27    15     7   ar
    28    14     9   ar
    29    25    26    1
@<TRIPOS>MOLECULE
*****
 26 29 0 0 0
SMALL
GASTEIGER

@<TRIPOS>ATOM
      1 C          64.6308   90.3681   13.2904 C.ar    1  UNL1        0.0542
      2 C          63.8029   89.7952   12.1785 C.ar    1  UNL1        0.0150
      3 C          63.3639   88.3619   12.2320 C.ar    1  UNL1        0.0033
      4 C          63.7528   87.5014   13.3974 C.ar    1  UNL1        0.0239
      5 C          64.5807   88.0742   14.5093 C.ar    1  UNL1        0.0033
      6 C          65.0197   89.5076   14.4558 C.ar    1  UNL1        0.0150
      7 C          63.3138   86.0681   13.4510 C.ar    1  UNL1        0.1107
      8 N          62.9116   85.3146   14.6840 N.ar    1  UNL1       -0.2383
      9 C          62.5492   83.9174   14.2760 C.ar    1  UNL1        0.0878
     10 C          62.0799   82.7312   15.0650 C.ar    1  UNL1        0.0196
     11 C          61.7888   81.4349   14.3687 C.ar    1  UNL1        0.0016
     12 C          61.9670   81.3249   12.8834 C.ar    1  UNL1        0.0006
     13 C          62.4362   82.5111   12.0944 C.ar    1  UNL1        0.0080
     14 C          62.7273   83.8074   12.7907 C.ar    1  UNL1        0.0485
     15 S          63.1999   85.1366   12.2808 S.2     1  UNL1       -0.0665
     16 C          66.3914   93.7896   14.2618 C.3     1  UNL1        0.0952
     17 C          65.9524   92.3562   14.3153 C.2     1  UNL1        0.2301
     18 O          66.3960   91.4777   15.4474 O.2     1  UNL1       -0.2745
     19 N          65.0698   91.8014   13.2368 N.am    1  UNL1       -0.2528
     20 C          64.6262   92.6798   12.1048 C.3     1  UNL1        0.1432
     21 C          65.6453   93.3698   11.2471 C.ar    1  UNL1        0.0749
     22 C          66.8889   92.7489   10.6833 C.ar    1  UNL1        0.1148
     23 N          67.6118   93.7971    9.8904 N.ar    1  UNL1       -0.2228
     24 C          66.8149   95.0658    9.9641 C.ar    1  UNL1        0.1748
     25 N          65.5995   94.8017   10.8027 N.ar    1  UNL1       -0.3369
     26 H          64.8954   95.4537   11.0227 H       1  UNL1        0.1672
@<TRIPOS>BOND
     1    16    17    1
     2    17    18    2
     3    17    19   am
     4    19    20    1
     5    20    21    1
     6    21    22   ar
     7    22    23   ar
     8    23    24   ar
     9    24    25   ar
    10    19     1    1
    11     1     2   ar
    12     2     3   ar
    13     3     4   ar
    14     4     7    1
    15     7     8   ar
    16     8     9   ar
    17     9    10   ar
    18    10    11   ar
    19    11    12   ar
    20    12    13   ar
    21    13    14   ar
    22    14    15   ar
    23     4     5   ar
    24     5     6   ar
    25    25    21   ar
    26     6     1   ar
    27    15     7   ar
    28    14     9   ar
    29    25    26    1
@<TRIPOS>MOLECULE
*****
 26 29 0 0 0
SMALL
GASTEIGER

@<TRIPOS>ATOM
      1 C          64.2412   91.1392   13.6839 C.ar    1  UNL1        0.0542
      2 C          64.0210   89.6739   13.9169 C.ar    1  UNL1        0.0150
      3 C          63.3110   88.8487   12.8849 C.ar    1  UNL1        0.0033
      4 C          62.8212   89.4889   11.6199 C.ar    1  UNL1        0.0239
      5 C          63.0414   90.9542   11.3869 C.ar    1  UNL1        0.0033
      6 C          63.7514   91.7793   12.4189 C.ar    1  UNL1        0.0150
      7 C          62.1112   88.6637   10.5879 C.ar    1  UNL1        0.1107
      8 N          60.8114   89.0097    9.9240 N.ar    1  UNL1       -0.2383
      9 C          60.4732   87.9075    8.9644 C.ar    1  UNL1        0.0878
     10 C          59.3129   87.7065    8.0352 C.ar    1  UNL1        0.0196
     11 C          59.2435   86.4783    7.1770 C.ar    1  UNL1        0.0016
     12 C          60.3342   85.4511    7.2479 C.ar    1  UNL1        0.0006
     13 C          61.4945   85.6521    8.1770 C.ar    1  UNL1        0.0080
     14 C          61.5640   86.8803    9.0353 C.ar    1  UNL1        0.0485
     15 S          62.5763   87.3476   10.0387 S.2     1  UNL1       -0.0665
     16 C          65.3346   92.6159   17.2015 C.3     1  UNL1        0.0952
     17 C          64.6246   91.7907   16.1695 C.2     1  UNL1        0.2301
     18 O          63.5880   90.7918   16.5913 O.2     1  UNL1       -0.2745
     19 N          64.9512   91.9644   14.7159 N.am    1  UNL1       -0.2528
     20 C          65.9877   92.9632   14.2942 C.3     1  UNL1        0.1432
     21 C          67.3236   92.4941   13.7990 C.ar    1  UNL1        0.0749
     22 C          68.6027   92.4900   14.5826 C.ar    1  UNL1        0.1148
     23 N          69.6846   91.9401   13.7012 N.ar    1  UNL1       -0.2228
     24 C          69.0743   91.6043   12.3727 C.ar    1  UNL1        0.1748
     25 N          67.6151   91.9466   12.4331 N.ar    1  UNL1       -0.3369
     26 H          66.9632   91.8322   11.7043 H       1  UNL1        0.1672
@<TRIPOS>BOND
     1    16    17    1
     2    17    18    2
     3    17    19   am
     4    19    20    1
     5    20    21    1
     6    21    22   ar
     7    22    23   ar
     8    23    24   ar
     9    24    25   ar
    10    19     1    1
    11     1     2   ar
    12     2     3   ar
    13     3     4   ar
    14     4     7    1
    15     7     8   ar
    16     8     9   ar
    17     9    10   ar
    18    10    11   ar
    19    11    12   ar
    20    12    13   ar
    21    13    14   ar
    22    14    15   ar
    23     4     5   ar
    24     5     6   ar
    25    25    21   ar
    26     6     1   ar
    27    15     7   ar
    28    14     9   ar
    29    25    26    1
@<TRIPOS>MOLECULE
*****
 26 29 0 0 0
SMALL
GASTEIGER

@<TRIPOS>ATOM
      1 C          61.4025   88.6202    9.6969 C.ar    1  UNL1        0.0542
      2 C          62.0263   87.9048   10.8584 C.ar    1  UNL1        0.0150
      3 C          62.9211   88.6489   11.8048 C.ar    1  UNL1        0.0033
      4 C          63.1920   90.1085   11.5897 C.ar    1  UNL1        0.0239
      5 C          62.5681   90.8239   10.4283 C.ar    1  UNL1        0.0033
      6 C          61.6733   90.0797    9.4819 C.ar    1  UNL1        0.0150
      7 C          64.0867   90.8526   12.5362 C.ar    1  UNL1        0.1107
      8 N          65.0963   91.8958   12.1588 N.ar    1  UNL1       -0.2383
      9 C          65.7625   92.3721   13.4155 C.ar    1  UNL1        0.0878
     10 C          66.8363   93.3910   13.6581 C.ar    1  UNL1        0.0196
     11 C          67.3122   93.6610   15.0547 C.ar    1  UNL1        0.0016
     12 C          66.7144   92.9122   16.2087 C.ar    1  UNL1        0.0006
     13 C          65.6406   91.8933   15.9662 C.ar    1  UNL1        0.0080
     14 C          65.1647   91.6233   14.5696 C.ar    1  UNL1        0.0485
     15 S          64.1289   90.6842   14.0261 S.2     1  UNL1       -0.0665
     16 C          60.0038   85.7676    7.3186 C.3     1  UNL1        0.0952
     17 C          60.8986   86.5117    8.2650 C.2     1  UNL1        0.2301
     18 O          62.1843   85.8915    8.7259 O.2     1  UNL1       -0.2745
     19 N          60.5077   87.8760    8.7505 N.am    1  UNL1       -0.2528
     20 C          59.2221   88.4962    8.2897 C.3     1  UNL1        0.1432
     21 C          59.2107   89.3933    7.0875 C.ar    1  UNL1        0.0749
     22 C          57.9912   89.8831    6.3644 C.ar    1  UNL1        0.1148
     23 N          58.4436   90.7507    5.2274 N.ar    1  UNL1       -0.2228
     24 C          59.9428   90.7970    5.2479 C.ar    1  UNL1        0.1748
     25 N          60.4169   89.9581    6.3975 N.ar    1  UNL1       -0.3369
     26 H          61.3550   89.8051    6.6540 H       1  UNL1        0.1672
@<TRIPOS>BOND
     1    16    17    1
     2    17    18    2
     3    17    19   am
     4    19    20    1
     5    20    21    1
     6    21    22   ar
     7    22    23   ar
     8    23    24   ar
     9    24    25   ar
    10    19     1    1
    11     1     2   ar
    12     2     3   ar
    13     3     4   ar
    14     4     7    1
    15     7     8   ar
    16     8     9   ar
    17     9    10   ar
    18    10    11   ar
    19    11    12   ar
    20    12    13   ar
    21    13    14   ar
    22    14    15   ar
    23     4     5   ar
    24     5     6   ar
    25    25    21   ar
    26     6     1   ar
    27    15     7   ar
    28    14     9   ar
    29    25    26    1
