@<TRIPOS>MOLECULE
*****
 28 31 0 0 0
SMALL
GASTEIGER

@<TRIPOS>ATOM
      1 N          62.5443   88.5726   11.0306 N.am    1  UNL1       -0.2788
      2 C          61.9587   89.3560   12.1678 C.2     1  UNL1        0.2571
      3 O          60.4811   89.6084   12.2223 O.2     1  UNL1       -0.2692
      4 H          63.5141   88.4070   10.9948 H       1  UNL1        0.1552
      5 C          60.0496   88.4596    7.9461 C.ar    1  UNL1        0.0698
      6 C          59.8683   86.9796    7.7823 C.ar    1  UNL1        0.0119
      7 C          60.5790   86.0307    8.7012 C.ar    1  UNL1        0.0195
      8 C          61.4710   86.5617    9.7840 C.ar    1  UNL1        0.0790
      9 C          61.6523   88.0416    9.9478 C.ar    1  UNL1        0.0676
     10 C          60.9416   88.9905    9.0289 C.ar    1  UNL1        0.0264
     11 N          62.1816   85.6127   10.7029 N.ar    1  UNL1       -0.2852
     12 C          62.0533   85.5695   12.1968 C.ar    1  UNL1        0.1023
     13 C          62.9378   84.4704   12.7064 C.ar    1  UNL1        0.1196
     14 N          63.6128   83.8343   11.5276 N.ar    1  UNL1       -0.2220
     15 C          63.1454   84.5403   10.2893 C.ar    1  UNL1        0.1829
     16 N          58.6282   90.3575    6.1083 N.1     1  UNL1       -0.1908
     17 C          59.3389   89.4085    7.0272 C.1     1  UNL1        0.1005
     18 C          62.8508   89.8871   13.2506 C.ar    1  UNL1        0.1035
     19 C          62.5869   89.8136   14.7253 C.ar    1  UNL1        0.1105
     20 N          63.7363   90.4659   15.4349 N.ar    1  UNL1       -0.2366
     21 C          64.7105   90.9425   14.3986 C.ar    1  UNL1        0.1109
     22 S          64.1632   90.5848   13.0486 S.2     1  UNL1       -0.0619
     23 C          66.0047   91.6523   14.6654 C.ar    1  UNL1        0.0238
     24 C          67.1214   91.5766   13.6669 C.ar    1  UNL1        0.0020
     25 C          68.4156   92.2863   13.9337 C.ar    1  UNL1        0.0001
     26 C          68.5931   93.0718   15.1992 C.ar    1  UNL1        0.0000
     27 C          67.4764   93.1476   16.1979 C.ar    1  UNL1        0.0001
     28 C          66.1822   92.4378   15.9309 C.ar    1  UNL1        0.0020
@<TRIPOS>BOND
     1    16    17    3
     2    17     5    1
     3     5     6   ar
     4     6     7   ar
     5     7     8   ar
     6     8    11    1
     7    11    12   ar
     8    12    13   ar
     9    13    14   ar
    10    14    15   ar
    11     8     9   ar
    12     9     1    1
    13     1     2   am
    14     2     3    2
    15     2    18    1
    16    18    19   ar
    17    19    20   ar
    18    20    21   ar
    19    21    23    1
    20    23    24   ar
    21    24    25   ar
    22    25    26   ar
    23    26    27   ar
    24    27    28   ar
    25    21    22   ar
    26     9    10   ar
    27    10     5   ar
    28    15    11   ar
    29    22    18   ar
    30    28    23   ar
    31     1     4    1
@<TRIPOS>MOLECULE
*****
 28 31 0 0 0
SMALL
GASTEIGER

@<TRIPOS>ATOM
      1 N          63.4625   85.8829   12.9638 N.am    1  UNL1       -0.2788
      2 C          62.5357   86.8471   12.2846 C.2     1  UNL1        0.2571
      3 O          61.2111   86.3737   11.7635 O.2     1  UNL1       -0.2692
      4 H          64.3318   86.1936   13.3058 H       1  UNL1        0.1552
      5 C          62.7917   82.0632   12.1210 C.ar    1  UNL1        0.0698
      6 C          62.2695   81.5699   13.4378 C.ar    1  UNL1        0.0119
      7 C          62.1449   82.5142   14.5965 C.ar    1  UNL1        0.0195
      8 C          62.5425   83.9518   14.4386 C.ar    1  UNL1        0.0790
      9 C          63.0648   84.4452   13.1218 C.ar    1  UNL1        0.0676
     10 C          63.1894   83.5008   11.9631 C.ar    1  UNL1        0.0264
     11 N          62.4180   84.8962   15.5973 N.ar    1  UNL1       -0.2852
     12 C          63.5443   85.3954   16.4529 C.ar    1  UNL1        0.1023
     13 C          62.9677   86.3148   17.4883 C.ar    1  UNL1        0.1196
     14 N          61.4849   86.3839   17.2727 N.ar    1  UNL1       -0.2220
     15 C          61.1451   85.5071   16.1040 C.ar    1  UNL1        0.1829
     16 N          63.0409   80.1745    9.8035 N.1     1  UNL1       -0.1908
     17 C          62.9163   81.1189   10.9623 C.1     1  UNL1        0.1005
     18 C          62.9333   88.2848   12.1266 C.ar    1  UNL1        0.1035
     19 C          62.4358   89.2261   11.0700 C.ar    1  UNL1        0.1105
     20 N          63.0933   90.5567   11.2877 N.ar    1  UNL1       -0.2366
     21 C          63.9972   90.4376   12.4790 C.ar    1  UNL1        0.1109
     22 S          63.8983   89.0335   12.9974 S.2     1  UNL1       -0.0619
     23 C          64.8501   91.5307   13.0512 C.ar    1  UNL1        0.0238
     24 C          65.3538   92.6310   12.1648 C.ar    1  UNL1        0.0020
     25 C          66.2067   93.7241   12.7371 C.ar    1  UNL1        0.0001
     26 C          66.5561   93.7169   14.1958 C.ar    1  UNL1        0.0000
     27 C          66.0524   92.6166   15.0823 C.ar    1  UNL1        0.0001
     28 C          65.1994   91.5236   14.5099 C.ar    1  UNL1        0.0020
@<TRIPOS>BOND
     1    16    17    3
     2    17     5    1
     3     5     6   ar
     4     6     7   ar
     5     7     8   ar
     6     8    11    1
     7    11    12   ar
     8    12    13   ar
     9    13    14   ar
    10    14    15   ar
    11     8     9   ar
    12     9     1    1
    13     1     2   am
    14     2     3    2
    15     2    18    1
    16    18    19   ar
    17    19    20   ar
    18    20    21   ar
    19    21    23    1
    20    23    24   ar
    21    24    25   ar
    22    25    26   ar
    23    26    27   ar
    24    27    28   ar
    25    21    22   ar
    26     9    10   ar
    27    10     5   ar
    28    15    11   ar
    29    22    18   ar
    30    28    23   ar
    31     1     4    1
@<TRIPOS>MOLECULE
*****
 28 31 0 0 0
SMALL
GASTEIGER

@<TRIPOS>ATOM
      1 N          65.2027   89.5575   14.2019 N.am    1  UNL1       -0.2788
      2 C          64.1807   89.2307   15.2501 C.2     1  UNL1        0.2571
      3 O          63.5736   90.3276   16.0735 O.2     1  UNL1       -0.2692
      4 H          65.6012   88.8376   13.6615 H       1  UNL1        0.1552
      5 C          67.1036   93.0179   14.6057 C.ar    1  UNL1        0.0698
      6 C          66.4476   93.8291   13.5279 C.ar    1  UNL1        0.0119
      7 C          65.3767   93.2164   12.6748 C.ar    1  UNL1        0.0195
      8 C          64.9618   91.7926   12.8994 C.ar    1  UNL1        0.0790
      9 C          65.6177   90.9814   13.9772 C.ar    1  UNL1        0.0676
     10 C          66.6886   91.5941   14.8304 C.ar    1  UNL1        0.0264
     11 N          63.8909   91.1800   12.0463 N.ar    1  UNL1       -0.2852
     12 C          63.7625   91.3180   10.5582 C.ar    1  UNL1        0.1023
     13 C          62.5526   90.5451   10.1236 C.ar    1  UNL1        0.1196
     14 N          61.9332   89.9294   11.3432 N.ar    1  UNL1       -0.2220
     15 C          62.7603   90.3218   12.5314 C.ar    1  UNL1        0.1829
     16 N          69.2454   94.2432   16.3120 N.1     1  UNL1       -0.1908
     17 C          68.1745   93.6305   15.4589 C.1     1  UNL1        0.1005
     18 C          63.7658   87.8068   15.4748 C.ar    1  UNL1        0.1035
     19 C          63.1180   87.2623   16.7133 C.ar    1  UNL1        0.1105
     20 N          62.8776   85.7964   16.5044 N.ar    1  UNL1       -0.2366
     21 C          63.3768   85.4351   15.1368 C.ar    1  UNL1        0.1109
     22 S          63.9257   86.6776   14.5005 S.2     1  UNL1       -0.0619
     23 C          63.3346   84.0709   14.5148 C.ar    1  UNL1        0.0238
     24 C          64.3635   83.6787   13.4962 C.ar    1  UNL1        0.0020
     25 C          64.3212   82.3145   12.8742 C.ar    1  UNL1        0.0001
     26 C          63.2500   81.3423   13.2707 C.ar    1  UNL1        0.0000
     27 C          62.2210   81.7343   14.2893 C.ar    1  UNL1        0.0001
     28 C          62.2633   83.0987   14.9113 C.ar    1  UNL1        0.0020
@<TRIPOS>BOND
     1    16    17    3
     2    17     5    1
     3     5     6   ar
     4     6     7   ar
     5     7     8   ar
     6     8    11    1
     7    11    12   ar
     8    12    13   ar
     9    13    14   ar
    10    14    15   ar
    11     8     9   ar
    12     9     1    1
    13     1     2   am
    14     2     3    2
    15     2    18    1
    16    18    19   ar
    17    19    20   ar
    18    20    21   ar
    19    21    23    1
    20    23    24   ar
    21    24    25   ar
    22    25    26   ar
    23    26    27   ar
    24    27    28   ar
    25    21    22   ar
    26     9    10   ar
    27    10     5   ar
    28    15    11   ar
    29    22    18   ar
    30    28    23   ar
    31     1     4    1
@<TRIPOS>MOLECULE
*****
 28 31 0 0 0
SMALL
GASTEIGER

@<TRIPOS>ATOM
      1 N          62.1872   87.0878   10.6811 N.am    1  UNL1       -0.2788
      2 C          60.7717   87.5824   10.6412 C.2     1  UNL1        0.2571
      3 O          60.0188   87.8054   11.9193 O.2     1  UNL1       -0.2692
      4 H          62.6813   86.9414    9.8422 H       1  UNL1        0.1552
      5 C          63.5605   85.1462   13.8582 C.ar    1  UNL1        0.0698
      6 C          64.1753   86.2726   14.6349 C.ar    1  UNL1        0.0119
      7 C          64.1274   87.6707   14.0936 C.ar    1  UNL1        0.0195
      8 C          63.4647   87.9425   12.7757 C.ar    1  UNL1        0.0790
      9 C          62.8499   86.8161   11.9991 C.ar    1  UNL1        0.0676
     10 C          62.8978   85.4180   12.5403 C.ar    1  UNL1        0.0264
     11 N          63.4168   89.3406   12.2344 N.ar    1  UNL1       -0.2852
     12 C          63.1082   89.7278   10.8185 C.ar    1  UNL1        0.1023
     13 C          63.1697   91.2235   10.7230 C.ar    1  UNL1        0.1196
     14 N          63.5164   91.7607   12.0800 N.ar    1  UNL1       -0.2220
     15 C          63.6690   90.5970   13.0141 C.ar    1  UNL1        0.1829
     16 N          63.6564   82.3500   14.9408 N.1     1  UNL1       -0.1908
     17 C          63.6085   83.7481   14.3995 C.1     1  UNL1        0.1005
     18 C          60.1089   87.8541    9.3232 C.ar    1  UNL1        0.1035
     19 C          59.2805   86.8824    8.5361 C.ar    1  UNL1        0.1105
     20 N          58.8178   87.5729    7.2874 N.ar    1  UNL1       -0.2366
     21 C          59.3604   88.9713    7.3028 C.ar    1  UNL1        0.1109
     22 S          60.1583   89.1451    8.5610 S.2     1  UNL1       -0.0619
     23 C          59.1432   90.0130    6.2457 C.ar    1  UNL1        0.0238
     24 C          57.7529   90.4721    5.9195 C.ar    1  UNL1        0.0020
     25 C          57.5357   91.5138    4.8624 C.ar    1  UNL1        0.0001
     26 C          58.7087   92.0964    4.1313 C.ar    1  UNL1        0.0000
     27 C          60.0991   91.6374    4.4574 C.ar    1  UNL1        0.0001
     28 C          60.3162   90.5956    5.5146 C.ar    1  UNL1        0.0020
@<TRIPOS>BOND
     1    16    17    3
     2    17     5    1
     3     5     6   ar
     4     6     7   ar
     5     7     8   ar
     6     8    11    1
     7    11    12   ar
     8    12    13   ar
     9    13    14   ar
    10    14    15   ar
    11     8     9   ar
    12     9     1    1
    13     1     2   am
    14     2     3    2
    15     2    18    1
    16    18    19   ar
    17    19    20   ar
    18    20    21   ar
    19    21    23    1
    20    23    24   ar
    21    24    25   ar
    22    25    26   ar
    23    26    27   ar
    24    27    28   ar
    25    21    22   ar
    26     9    10   ar
    27    10     5   ar
    28    15    11   ar
    29    22    18   ar
    30    28    23   ar
    31     1     4    1
@<TRIPOS>MOLECULE
*****
 28 31 0 0 0
SMALL
GASTEIGER

@<TRIPOS>ATOM
      1 N          63.4250   87.0884   12.7798 N.am    1  UNL1       -0.2788
      2 C          63.6275   86.3116   14.0469 C.2     1  UNL1        0.2571
      3 O          63.9245   87.0318   15.3288 O.2     1  UNL1       -0.2692
      4 H          63.2301   86.6157   11.9385 H       1  UNL1        0.1552
      5 C          64.5434   90.7658   13.7678 C.ar    1  UNL1        0.0698
      6 C          63.7083   91.5792   12.8240 C.ar    1  UNL1        0.0119
      7 C          62.7788   90.8957   11.8654 C.ar    1  UNL1        0.0195
      8 C          62.6844   89.3988   11.8506 C.ar    1  UNL1        0.0790
      9 C          63.5194   88.5854   12.7945 C.ar    1  UNL1        0.0676
     10 C          64.4489   89.2688   13.7531 C.ar    1  UNL1        0.0264
     11 N          61.7549   88.7154   10.8921 N.ar    1  UNL1       -0.2852
     12 C          62.1609   87.8825    9.7125 C.ar    1  UNL1        0.1023
     13 C          60.9131   87.3971    9.0361 C.ar    1  UNL1        0.1196
     14 N          59.7359   87.9301    9.7977 N.ar    1  UNL1       -0.2220
     15 C          60.2561   88.7448   10.9447 C.ar    1  UNL1        0.1829
     16 N          66.4024   92.1327   15.6850 N.1     1  UNL1       -0.1908
     17 C          65.4729   91.4492   14.7264 C.1     1  UNL1        0.1005
     18 C          63.5331   84.8146   14.0323 C.ar    1  UNL1        0.1035
     19 C          63.6540   83.9119   15.2241 C.ar    1  UNL1        0.1105
     20 N          63.4968   82.4969   14.7517 N.ar    1  UNL1       -0.2366
     21 C          63.2788   82.5252   13.2678 C.ar    1  UNL1        0.1109
     22 S          63.3013   83.9576   12.8232 S.2     1  UNL1       -0.0619
     23 C          63.0743   81.3308   12.3838 C.ar    1  UNL1        0.0238
     24 C          63.2986   81.4449   10.9050 C.ar    1  UNL1        0.0020
     25 C          63.0941   80.2505   10.0211 C.ar    1  UNL1        0.0001
     26 C          62.6653   78.9419   10.6157 C.ar    1  UNL1        0.0000
     27 C          62.4410   78.8277   12.0945 C.ar    1  UNL1        0.0001
     28 C          62.6455   80.0222   12.9785 C.ar    1  UNL1        0.0020
@<TRIPOS>BOND
     1    16    17    3
     2    17     5    1
     3     5     6   ar
     4     6     7   ar
     5     7     8   ar
     6     8    11    1
     7    11    12   ar
     8    12    13   ar
     9    13    14   ar
    10    14    15   ar
    11     8     9   ar
    12     9     1    1
    13     1     2   am
    14     2     3    2
    15     2    18    1
    16    18    19   ar
    17    19    20   ar
    18    20    21   ar
    19    21    23    1
    20    23    24   ar
    21    24    25   ar
    22    25    26   ar
    23    26    27   ar
    24    27    28   ar
    25    21    22   ar
    26     9    10   ar
    27    10     5   ar
    28    15    11   ar
    29    22    18   ar
    30    28    23   ar
    31     1     4    1
@<TRIPOS>MOLECULE
*****
 28 31 0 0 0
SMALL
GASTEIGER

@<TRIPOS>ATOM
      1 N          63.7404   89.6076   12.3466 N.am    1  UNL1       -0.2788
      2 C          62.4268   89.8944   11.6817 C.2     1  UNL1        0.2571
      3 O          61.8239   91.2649   11.7722 O.2     1  UNL1       -0.2692
      4 H          64.1361   88.7080   12.2872 H       1  UNL1        0.1552
      5 C          65.7005   92.9691   13.1267 C.ar    1  UNL1        0.0698
      6 C          65.8726   92.8585   14.6126 C.ar    1  UNL1        0.0119
      7 C          65.3339   91.6643   15.3433 C.ar    1  UNL1        0.0195
      8 C          64.6232   90.5807   14.5879 C.ar    1  UNL1        0.0790
      9 C          64.4512   90.6912   13.1020 C.ar    1  UNL1        0.0676
     10 C          64.9898   91.8854   12.3714 C.ar    1  UNL1        0.0264
     11 N          64.0846   89.3865   15.3186 N.ar    1  UNL1       -0.2852
     12 C          63.2220   89.4186   16.5453 C.ar    1  UNL1        0.1023
     13 C          62.9183   88.0025   16.9357 C.ar    1  UNL1        0.1196
     14 N          63.5932   87.0952   15.9501 N.ar    1  UNL1       -0.2220
     15 C          64.3140   87.9505   14.9507 C.ar    1  UNL1        0.1829
     16 N          66.7778   95.3574   11.6654 N.1     1  UNL1       -0.1908
     17 C          66.2391   94.1632   12.3961 C.1     1  UNL1        0.1005
     18 C          61.7161   88.8107   10.9263 C.ar    1  UNL1        0.1035
     19 C          60.3150   88.3361   11.1747 C.ar    1  UNL1        0.1105
     20 N          60.0146   87.2435   10.1918 N.ar    1  UNL1       -0.2366
     21 C          61.2301   87.0429    9.3360 C.ar    1  UNL1        0.1109
     22 S          62.2816   88.0115    9.7899 S.2     1  UNL1       -0.0619
     23 C          61.3696   86.0484    8.2219 C.ar    1  UNL1        0.0238
     24 C          60.1808   85.6965    7.3773 C.ar    1  UNL1        0.0020
     25 C          60.3203   84.7019    6.2632 C.ar    1  UNL1        0.0001
     26 C          61.6485   84.0591    5.9935 C.ar    1  UNL1        0.0000
     27 C          62.8373   84.4110    6.8380 C.ar    1  UNL1        0.0001
     28 C          62.6977   85.4056    7.9521 C.ar    1  UNL1        0.0020
@<TRIPOS>BOND
     1    16    17    3
     2    17     5    1
     3     5     6   ar
     4     6     7   ar
     5     7     8   ar
     6     8    11    1
     7    11    12   ar
     8    12    13   ar
     9    13    14   ar
    10    14    15   ar
    11     8     9   ar
    12     9     1    1
    13     1     2   am
    14     2     3    2
    15     2    18    1
    16    18    19   ar
    17    19    20   ar
    18    20    21   ar
    19    21    23    1
    20    23    24   ar
    21    24    25   ar
    22    25    26   ar
    23    26    27   ar
    24    27    28   ar
    25    21    22   ar
    26     9    10   ar
    27    10     5   ar
    28    15    11   ar
    29    22    18   ar
    30    28    23   ar
    31     1     4    1
@<TRIPOS>MOLECULE
*****
 28 31 0 0 0
SMALL
GASTEIGER

@<TRIPOS>ATOM
      1 N          63.2323   88.0671   12.5541 N.am    1  UNL1       -0.2788
      2 C          63.9208   87.6331   13.8141 C.2     1  UNL1        0.2571
      3 O          64.8291   88.5824   14.5377 O.2     1  UNL1       -0.2692
      4 H          62.6361   87.4440   12.0792 H       1  UNL1        0.1552
      5 C          64.5696   91.7880   12.2123 C.ar    1  UNL1        0.0698
      6 C          63.8921   92.2174   10.9448 C.ar    1  UNL1        0.0119
      7 C          62.9946   91.2634   10.2137 C.ar    1  UNL1        0.0195
      8 C          62.7747   89.8800   10.7501 C.ar    1  UNL1        0.0790
      9 C          63.4522   89.4506   12.0176 C.ar    1  UNL1        0.0676
     10 C          64.3497   90.4046   12.7487 C.ar    1  UNL1        0.0264
     11 N          61.8773   88.9260   10.0191 N.ar    1  UNL1       -0.2852
     12 C          62.2201   87.5203    9.6235 C.ar    1  UNL1        0.1023
     13 C          61.0341   86.9357    8.9152 C.ar    1  UNL1        0.1196
     14 N          59.9583   87.9801    8.8730 N.ar    1  UNL1       -0.2220
     15 C          60.4794   89.2101    9.5553 C.ar    1  UNL1        0.1829
     16 N          66.3646   93.6960   13.6744 N.1     1  UNL1       -0.1908
     17 C          65.4671   92.7420   12.9433 C.1     1  UNL1        0.1005
     18 C          63.7008   86.2496   14.3506 C.ar    1  UNL1        0.1035
     19 C          63.8810   85.8177   15.7757 C.ar    1  UNL1        0.1105
     20 N          63.5537   84.3564   15.8621 N.ar    1  UNL1       -0.2366
     21 C          63.1712   83.8852   14.4902 C.ar    1  UNL1        0.1109
     22 S          63.2622   85.0553   13.5561 S.2     1  UNL1       -0.0619
     23 C          62.7686   82.4891   14.1180 C.ar    1  UNL1        0.0238
     24 C          61.3980   81.9866   14.4629 C.ar    1  UNL1        0.0020
     25 C          60.9953   80.5905   14.0906 C.ar    1  UNL1        0.0001
     26 C          61.9632   79.6968   13.3734 C.ar    1  UNL1        0.0000
     27 C          63.3339   80.1992   13.0284 C.ar    1  UNL1        0.0001
     28 C          63.7365   81.5954   13.4007 C.ar    1  UNL1        0.0020
@<TRIPOS>BOND
     1    16    17    3
     2    17     5    1
     3     5     6   ar
     4     6     7   ar
     5     7     8   ar
     6     8    11    1
     7    11    12   ar
     8    12    13   ar
     9    13    14   ar
    10    14    15   ar
    11     8     9   ar
    12     9     1    1
    13     1     2   am
    14     2     3    2
    15     2    18    1
    16    18    19   ar
    17    19    20   ar
    18    20    21   ar
    19    21    23    1
    20    23    24   ar
    21    24    25   ar
    22    25    26   ar
    23    26    27   ar
    24    27    28   ar
    25    21    22   ar
    26     9    10   ar
    27    10     5   ar
    28    15    11   ar
    29    22    18   ar
    30    28    23   ar
    31     1     4    1
@<TRIPOS>MOLECULE
*****
 28 31 0 0 0
SMALL
GASTEIGER

@<TRIPOS>ATOM
      1 N          62.6532   89.4468    9.8313 N.am    1  UNL1       -0.2788
      2 C          62.5114   90.6583   10.7042 C.2     1  UNL1        0.2571
      3 O          61.1490   91.2040   11.0142 O.2     1  UNL1       -0.2692
      4 H          63.5474   89.0887    9.6278 H       1  UNL1        0.1552
      5 C          59.4024   88.8043    7.6473 C.ar    1  UNL1        0.0698
      6 C          58.9916   87.4493    8.1424 C.ar    1  UNL1        0.0119
      7 C          59.8013   86.7601    9.2004 C.ar    1  UNL1        0.0195
      8 C          61.0218   87.4259    9.7633 C.ar    1  UNL1        0.0790
      9 C          61.4326   88.7809    9.2683 C.ar    1  UNL1        0.0676
     10 C          60.6229   89.4701    8.2103 C.ar    1  UNL1        0.0264
     11 N          61.8315   86.7367   10.8213 N.ar    1  UNL1       -0.2852
     12 C          62.0499   85.2575   10.9407 C.ar    1  UNL1        0.1023
     13 C          62.9184   85.0123   12.1389 C.ar    1  UNL1        0.1196
     14 N          63.2368   86.3399   12.7601 N.ar    1  UNL1       -0.2220
     15 C          62.5651   87.4057   11.9458 C.ar    1  UNL1        0.1829
     16 N          57.7830   90.1827    5.5313 N.1     1  UNL1       -0.1908
     17 C          58.5927   89.4935    6.5893 C.1     1  UNL1        0.1005
     18 C          63.7319   91.3242   11.2672 C.ar    1  UNL1        0.1035
     19 C          64.6322   92.2767   10.5376 C.ar    1  UNL1        0.1105
     20 N          65.7232   92.6957   11.4780 N.ar    1  UNL1       -0.2366
     21 C          65.4971   92.0021   12.7887 C.ar    1  UNL1        0.1109
     22 S          64.2664   91.1546   12.6584 S.2     1  UNL1       -0.0619
     23 C          66.3515   92.1332   14.0145 C.ar    1  UNL1        0.0238
     24 C          65.7155   92.3922   15.3481 C.ar    1  UNL1        0.0020
     25 C          66.5699   92.5233   16.5738 C.ar    1  UNL1        0.0001
     26 C          68.0606   92.3953   16.4662 C.ar    1  UNL1        0.0000
     27 C          68.6968   92.1363   15.1326 C.ar    1  UNL1        0.0001
     28 C          67.8422   92.0053   13.9068 C.ar    1  UNL1        0.0020
@<TRIPOS>BOND
     1    16    17    3
     2    17     5    1
     3     5     6   ar
     4     6     7   ar
     5     7     8   ar
     6     8    11    1
     7    11    12   ar
     8    12    13   ar
     9    13    14   ar
    10    14    15   ar
    11     8     9   ar
    12     9     1    1
    13     1     2   am
    14     2     3    2
    15     2    18    1
    16    18    19   ar
    17    19    20   ar
    18    20    21   ar
    19    21    23    1
    20    23    24   ar
    21    24    25   ar
    22    25    26   ar
    23    26    27   ar
    24    27    28   ar
    25    21    22   ar
    26     9    10   ar
    27    10     5   ar
    28    15    11   ar
    29    22    18   ar
    30    28    23   ar
    31     1     4    1
@<TRIPOS>MOLECULE
*****
 28 31 0 0 0
SMALL
GASTEIGER

@<TRIPOS>ATOM
      1 N          62.3894   88.0035   11.4546 N.am    1  UNL1       -0.2788
      2 C          62.8808   89.4196   11.5102 C.2     1  UNL1        0.2571
      3 O          62.6421   90.3424   10.3520 O.2     1  UNL1       -0.2692
      4 H          62.5460   87.3978   12.2147 H       1  UNL1        0.1552
      5 C          61.5920   86.0444    8.0965 C.ar    1  UNL1        0.0698
      6 C          60.1992   86.5234    7.8128 C.ar    1  UNL1        0.0119
      7 C          59.5364   87.4958    8.7429 C.ar    1  UNL1        0.0195
      8 C          60.2665   87.9892    9.9568 C.ar    1  UNL1        0.0790
      9 C          61.6593   87.5101   10.2406 C.ar    1  UNL1        0.0676
     10 C          62.3220   86.5377    9.3105 C.ar    1  UNL1        0.0264
     11 N          59.6037   88.9616   10.8870 N.ar    1  UNL1       -0.2852
     12 C          59.4955   90.4436   10.6824 C.ar    1  UNL1        0.1023
     13 C          58.7577   91.0207   11.8540 C.ar    1  UNL1        0.1196
     14 N          58.4098   89.8953   12.7827 N.ar    1  UNL1       -0.2220
     15 C          58.9327   88.6227   12.1850 C.ar    1  UNL1        0.1829
     16 N          62.9176   84.0996    6.2363 N.1     1  UNL1       -0.1908
     17 C          62.2548   85.0720    7.1664 C.1     1  UNL1        0.1005
     18 C          63.6109   89.9129   12.7242 C.ar    1  UNL1        0.1035
     19 C          63.1921   89.7058   14.1496 C.ar    1  UNL1        0.1105
     20 N          64.2103   90.3649   15.0323 N.ar    1  UNL1       -0.2366
     21 C          65.2583   90.9793   14.1523 C.ar    1  UNL1        0.1109
     22 S          64.8878   90.7000   12.7259 S.2     1  UNL1       -0.0619
     23 C          66.4649   91.7395   14.6171 C.ar    1  UNL1        0.0238
     24 C          66.4194   92.5025   15.9078 C.ar    1  UNL1        0.0020
     25 C          67.6259   93.2627   16.3726 C.ar    1  UNL1        0.0001
     26 C          68.8781   93.2600   15.5469 C.ar    1  UNL1        0.0000
     27 C          68.9238   92.4970   14.2561 C.ar    1  UNL1        0.0001
     28 C          67.7171   91.7368   13.7914 C.ar    1  UNL1        0.0020
@<TRIPOS>BOND
     1    16    17    3
     2    17     5    1
     3     5     6   ar
     4     6     7   ar
     5     7     8   ar
     6     8    11    1
     7    11    12   ar
     8    12    13   ar
     9    13    14   ar
    10    14    15   ar
    11     8     9   ar
    12     9     1    1
    13     1     2   am
    14     2     3    2
    15     2    18    1
    16    18    19   ar
    17    19    20   ar
    18    20    21   ar
    19    21    23    1
    20    23    24   ar
    21    24    25   ar
    22    25    26   ar
    23    26    27   ar
    24    27    28   ar
    25    21    22   ar
    26     9    10   ar
    27    10     5   ar
    28    15    11   ar
    29    22    18   ar
    30    28    23   ar
    31     1     4    1
