@<TRIPOS>MOLECULE
*****
 43 46 0 0 0
SMALL
GASTEIGER

@<TRIPOS>ATOM
      1 N          61.8449   89.6616   12.2269 N.3     1  UNL1       -0.2699
      2 C          59.4602   90.4662   11.5816 C.3     1  UNL1        0.0188
      3 C          60.3568   89.5836   12.3986 C.3     1  UNL1        0.0722
      4 C          62.5726   90.9308   12.5580 C.3     1  UNL1        0.0924
      5 C          63.8499   90.8801   13.3426 C.3     1  UNL1        0.0950
      6 N          65.1644   91.0853   12.6497 N.am    1  UNL1       -0.2706
      7 C          66.0660   92.2084   13.0689 C.2     1  UNL1        0.4020
      8 O          65.6531   93.1264   14.1810 O.2     1  UNL1       -0.2264
      9 H          65.4355   90.4828   11.9198 H       1  UNL1        0.1527
     10 O          67.3804   92.4135   12.3760 O.3     1  UNL1       -0.4274
     11 C          67.4371   92.4760   10.8783 C.3     1  UNL1        0.2621
     12 C          67.1279   93.7610   10.1690 C.ar    1  UNL1        0.1323
     13 N          66.0783   94.7566   10.5655 N.ar    1  UNL1       -0.2374
     14 C          66.1158   95.8869    9.5802 C.ar    1  UNL1        0.1062
     15 C          67.1886   95.5899    8.5747 C.ar    1  UNL1        0.0573
     16 S          67.8141   94.2760    8.9386 S.2     1  UNL1       -0.0666
     17 C          63.8129   90.6243   14.8202 C.3     1  UNL1        0.0474
     18 C          63.7517   89.2173   15.3364 C.ar    1  UNL1       -0.0205
     19 C          64.3966   88.1058   14.5627 C.ar    1  UNL1       -0.0042
     20 C          64.3354   86.6988   15.0789 C.ar    1  UNL1       -0.0003
     21 C          63.6294   86.4032   16.3690 C.ar    1  UNL1       -0.0000
     22 C          62.9845   87.5148   17.1427 C.ar    1  UNL1       -0.0003
     23 C          63.0457   88.9218   16.6264 C.ar    1  UNL1       -0.0042
     24 C          62.6052   88.4704   11.7241 C.3     1  UNL1        0.0924
     25 C          61.9658   87.5311   10.7449 C.3     1  UNL1        0.0950
     26 N          61.7783   87.9499    9.3168 N.am    1  UNL1       -0.2706
     27 C          60.3969   88.0588    8.7424 C.2     1  UNL1        0.4020
     28 O          59.2031   87.7490    9.5961 O.2     1  UNL1       -0.2264
     29 H          62.5618   88.1532    8.7565 H       1  UNL1        0.1527
     30 O          60.2093   88.4776    7.3144 O.3     1  UNL1       -0.4291
     31 C          58.9094   89.0836    6.8750 C.3     1  UNL1        0.2447
     32 C          58.9060   90.2403    5.9200 C.ar    1  UNL1        0.0714
     33 C          57.6939   90.9759    5.4304 C.ar    1  UNL1        0.1053
     34 N          58.1529   92.0547    4.4947 N.ar    1  UNL1       -0.2350
     35 C          59.6487   91.9859    4.4061 C.ar    1  UNL1        0.1343
     36 S          60.1142   90.8646    5.2869 S.2     1  UNL1       -0.0652
     37 C          61.5140   86.1730   11.1938 C.3     1  UNL1        0.0474
     38 C          62.4891   85.0340   11.2357 C.ar    1  UNL1       -0.0205
     39 C          62.8496   84.4032   12.5481 C.ar    1  UNL1       -0.0042
     40 C          63.8247   83.2642   12.5900 C.ar    1  UNL1       -0.0003
     41 C          64.4394   82.7560   11.3196 C.ar    1  UNL1       -0.0000
     42 C          64.0789   83.3868   10.0073 C.ar    1  UNL1       -0.0003
     43 C          63.1038   84.5258    9.9653 C.ar    1  UNL1       -0.0042
@<TRIPOS>BOND
     1     2     3    1
     2     3     1    1
     3     1    24    1
     4    25    24    1
     5    25    37    1
     6    37    38    1
     7    38    39   ar
     8    39    40   ar
     9    40    41   ar
    10    41    42   ar
    11    42    43   ar
    12    25    26    1
    13    26    27   am
    14    27    28    2
    15    27    30    1
    16    30    31    1
    17    31    32    1
    18    32    33   ar
    19    33    34   ar
    20    34    35   ar
    21    35    36   ar
    22     1     4    1
    23     5     4    1
    24     5    17    1
    25    17    18    1
    26    18    19   ar
    27    19    20   ar
    28    20    21   ar
    29    21    22   ar
    30    22    23   ar
    31     5     6    1
    32     6     7   am
    33     7     8    2
    34     7    10    1
    35    10    11    1
    36    11    12    1
    37    12    13   ar
    38    13    14   ar
    39    14    15   ar
    40    15    16   ar
    41    43    38   ar
    42    36    32   ar
    43    23    18   ar
    44    16    12   ar
    45    26    29    1
    46     6     9    1
@<TRIPOS>MOLECULE
*****
 43 46 0 0 0
SMALL
GASTEIGER

@<TRIPOS>ATOM
      1 N          62.6662   89.8929   12.1125 N.3     1  UNL1       -0.2699
      2 C          63.7996   91.5959   10.5108 C.3     1  UNL1        0.0188
      3 C          62.5581   90.9895   11.0948 C.3     1  UNL1        0.0722
      4 C          62.4091   90.1858   13.5609 C.3     1  UNL1        0.0924
      5 C          63.5587   90.3111   14.5163 C.3     1  UNL1        0.0950
      6 N          64.7972   91.0515   14.1065 N.am    1  UNL1       -0.2706
      7 C          65.4055   92.0648   15.0302 C.2     1  UNL1        0.4020
      8 O          64.7753   92.3376   16.3638 O.2     1  UNL1       -0.2264
      9 H          65.2109   90.8725   13.2312 H       1  UNL1        0.1527
     10 O          66.6439   92.8052   14.6204 O.3     1  UNL1       -0.4274
     11 C          66.5460   93.9642   13.6731 C.3     1  UNL1        0.2621
     12 C          66.7082   93.7433   12.1984 C.ar    1  UNL1        0.1323
     13 N          67.3884   92.5732   11.5517 N.ar    1  UNL1       -0.2374
     14 C          67.3193   92.7604   10.0650 C.ar    1  UNL1        0.1062
     15 C          66.5964   94.0463    9.7929 C.ar    1  UNL1        0.0573
     16 S          66.2187   94.6537   11.1114 S.2     1  UNL1       -0.0666
     17 C          63.4699   89.6959   15.8814 C.3     1  UNL1        0.0474
     18 C          63.5220   88.2049   16.0370 C.ar    1  UNL1       -0.0205
     19 C          64.2462   87.3699   15.0230 C.ar    1  UNL1       -0.0042
     20 C          64.2983   85.8789   15.1786 C.ar    1  UNL1       -0.0003
     21 C          63.6262   85.2229   16.3483 C.ar    1  UNL1       -0.0000
     22 C          62.9020   86.0580   17.3623 C.ar    1  UNL1       -0.0003
     23 C          62.8499   87.5490   17.2066 C.ar    1  UNL1       -0.0042
     24 C          63.0313   88.5033   11.6816 C.3     1  UNL1        0.0924
     25 C          61.9591   87.4727   11.4859 C.3     1  UNL1        0.0950
     26 N          62.2897   86.0145   11.6055 N.am    1  UNL1       -0.2706
     27 C          62.7231   85.2419   10.3950 C.2     1  UNL1        0.4020
     28 O          62.8260   85.9275    9.0649 O.2     1  UNL1       -0.2264
     29 H          62.2222   85.5645   12.4785 H       1  UNL1        0.1527
     30 O          63.0537   83.7837   10.5146 O.3     1  UNL1       -0.4291
     31 C          63.7978   83.2794   11.7154 C.3     1  UNL1        0.2447
     32 C          63.1585   82.2733   12.6259 C.ar    1  UNL1        0.0714
     33 C          62.6950   82.5242   14.0303 C.ar    1  UNL1        0.1053
     34 N          62.1205   81.2456   14.5643 N.ar    1  UNL1       -0.2350
     35 C          62.2291   80.2044   13.4899 C.ar    1  UNL1        0.1343
     36 S          62.8706   80.8396   12.2920 S.2     1  UNL1       -0.0652
     37 C          60.5564   87.9003   11.1705 C.3     1  UNL1        0.0474
     38 C          60.1038   87.9942    9.7435 C.ar    1  UNL1       -0.0205
     39 C          60.2305   89.2910    9.0002 C.ar    1  UNL1       -0.0042
     40 C          59.7780   89.3849    7.5732 C.ar    1  UNL1       -0.0003
     41 C          59.1987   88.1821    6.8894 C.ar    1  UNL1       -0.0000
     42 C          59.0720   86.8853    7.6326 C.ar    1  UNL1       -0.0003
     43 C          59.5245   86.7914    9.0597 C.ar    1  UNL1       -0.0042
@<TRIPOS>BOND
     1     2     3    1
     2     3     1    1
     3     1    24    1
     4    25    24    1
     5    25    37    1
     6    37    38    1
     7    38    39   ar
     8    39    40   ar
     9    40    41   ar
    10    41    42   ar
    11    42    43   ar
    12    25    26    1
    13    26    27   am
    14    27    28    2
    15    27    30    1
    16    30    31    1
    17    31    32    1
    18    32    33   ar
    19    33    34   ar
    20    34    35   ar
    21    35    36   ar
    22     1     4    1
    23     5     4    1
    24     5    17    1
    25    17    18    1
    26    18    19   ar
    27    19    20   ar
    28    20    21   ar
    29    21    22   ar
    30    22    23   ar
    31     5     6    1
    32     6     7   am
    33     7     8    2
    34     7    10    1
    35    10    11    1
    36    11    12    1
    37    12    13   ar
    38    13    14   ar
    39    14    15   ar
    40    15    16   ar
    41    43    38   ar
    42    36    32   ar
    43    23    18   ar
    44    16    12   ar
    45    26    29    1
    46     6     9    1
@<TRIPOS>MOLECULE
*****
 43 46 0 0 0
SMALL
GASTEIGER

@<TRIPOS>ATOM
      1 N          62.0925   89.6205   12.0499 N.3     1  UNL1       -0.2699
      2 C          59.7735   90.4803   11.2544 C.3     1  UNL1        0.0188
      3 C          61.2576   90.3788   11.0612 C.3     1  UNL1        0.0722
      4 C          62.7465   88.3320   11.6472 C.3     1  UNL1        0.0924
      5 C          62.0390   87.3900   10.7188 C.3     1  UNL1        0.0950
      6 N          61.8142   87.7758    9.2868 N.am    1  UNL1       -0.2706
      7 C          60.4208   87.8285    8.7341 C.2     1  UNL1        0.4020
      8 O          59.2521   87.4952    9.6133 O.2     1  UNL1       -0.2264
      9 H          62.5813   87.9946    8.7097 H       1  UNL1        0.1527
     10 O          60.1960   88.2143    7.3021 O.3     1  UNL1       -0.4274
     11 C          58.9736   88.9945    6.9185 C.3     1  UNL1        0.2621
     12 C          59.0859   90.1395    5.9561 C.ar    1  UNL1        0.1323
     13 N          60.3546   90.6567    5.3455 N.ar    1  UNL1       -0.2374
     14 C          60.0022   91.8052    4.4473 C.ar    1  UNL1        0.1062
     15 C          58.5155   91.9977    4.5028 C.ar    1  UNL1        0.0573
     16 S          57.9493   90.9682    5.4353 S.2     1  UNL1       -0.0666
     17 C          61.5563   86.0620   11.2223 C.3     1  UNL1        0.0474
     18 C          62.4962   84.8944   11.2783 C.ar    1  UNL1       -0.0205
     19 C          63.1762   84.4184   10.0289 C.ar    1  UNL1       -0.0042
     20 C          64.1161   83.2507   10.0849 C.ar    1  UNL1       -0.0003
     21 C          64.3760   82.5591   11.3903 C.ar    1  UNL1       -0.0000
     22 C          63.6960   83.0351   12.6397 C.ar    1  UNL1       -0.0003
     23 C          62.7561   84.2028   12.5837 C.ar    1  UNL1       -0.0042
     24 C          62.2736   90.1506   13.4413 C.3     1  UNL1        0.0924
     25 C          63.6532   90.3897   13.9793 C.3     1  UNL1        0.0950
     26 N          64.6732   91.0994   13.1392 N.am    1  UNL1       -0.2706
     27 C          65.5013   92.1993   13.7346 C.2     1  UNL1        0.4020
     28 O          65.3093   92.5895   15.1702 O.2     1  UNL1       -0.2264
     29 H          64.7992   90.8434   12.1969 H       1  UNL1        0.1527
     30 O          66.5212   92.9091   12.8945 O.3     1  UNL1       -0.4291
     31 C          66.0916   93.6645   11.6719 C.3     1  UNL1        0.2447
     32 C          66.8971   93.5698   10.4101 C.ar    1  UNL1        0.0714
     33 C          67.6947   92.3817    9.9603 C.ar    1  UNL1        0.1053
     34 N          68.3370   92.7241    8.6488 N.ar    1  UNL1       -0.2350
     35 C          67.9364   94.1240    8.2880 C.ar    1  UNL1        0.1343
     36 S          67.0465   94.6466    9.3765 S.2     1  UNL1       -0.0652
     37 C          64.0129   89.9190   15.3574 C.3     1  UNL1        0.0474
     38 C          63.8266   88.4781   15.7302 C.ar    1  UNL1       -0.0205
     39 C          63.0529   88.1164   16.9634 C.ar    1  UNL1       -0.0042
     40 C          62.8667   86.6755   17.3362 C.ar    1  UNL1       -0.0003
     41 C          63.4541   85.5962   16.4759 C.ar    1  UNL1       -0.0000
     42 C          64.2277   85.9578   15.2428 C.ar    1  UNL1       -0.0003
     43 C          64.4140   87.3988   14.8699 C.ar    1  UNL1       -0.0042
@<TRIPOS>BOND
     1     2     3    1
     2     3     1    1
     3     1    24    1
     4    25    24    1
     5    25    37    1
     6    37    38    1
     7    38    39   ar
     8    39    40   ar
     9    40    41   ar
    10    41    42   ar
    11    42    43   ar
    12    25    26    1
    13    26    27   am
    14    27    28    2
    15    27    30    1
    16    30    31    1
    17    31    32    1
    18    32    33   ar
    19    33    34   ar
    20    34    35   ar
    21    35    36   ar
    22     1     4    1
    23     5     4    1
    24     5    17    1
    25    17    18    1
    26    18    19   ar
    27    19    20   ar
    28    20    21   ar
    29    21    22   ar
    30    22    23   ar
    31     5     6    1
    32     6     7   am
    33     7     8    2
    34     7    10    1
    35    10    11    1
    36    11    12    1
    37    12    13   ar
    38    13    14   ar
    39    14    15   ar
    40    15    16   ar
    41    43    38   ar
    42    36    32   ar
    43    23    18   ar
    44    16    12   ar
    45    26    29    1
    46     6     9    1
@<TRIPOS>MOLECULE
*****
 43 46 0 0 0
SMALL
GASTEIGER

@<TRIPOS>ATOM
      1 N          61.7650   89.9954   11.4286 N.3     1  UNL1       -0.2699
      2 C          63.2779   91.5097    9.9562 C.3     1  UNL1        0.0188
      3 C          63.0122   90.1902   10.6184 C.3     1  UNL1        0.0722
      4 C          60.4233   90.0227   10.7584 C.3     1  UNL1        0.0924
      5 C          60.1457   89.1131    9.5985 C.3     1  UNL1        0.0950
      6 N          60.1371   89.6600    8.2017 N.am    1  UNL1       -0.2706
      7 C          59.2978   89.0052    7.1450 C.2     1  UNL1        0.4020
      8 O          58.4670   87.8035    7.4850 O.2     1  UNL1       -0.2264
      9 H          60.6824   90.4488    7.9786 H       1  UNL1        0.1527
     10 O          59.2893   89.5521    5.7483 O.3     1  UNL1       -0.4274
     11 C          59.0356   91.0122    5.5161 C.3     1  UNL1        0.2621
     12 C          59.7685   91.7368    4.4263 C.ar    1  UNL1        0.1323
     13 N          59.1763   92.7401    3.4815 N.ar    1  UNL1       -0.2374
     14 C          60.2641   93.2086    2.5611 C.ar    1  UNL1        0.1062
     15 C          61.5287   92.4948    2.9372 C.ar    1  UNL1        0.0573
     16 S          61.2224   91.5852    4.0899 S.2     1  UNL1       -0.0666
     17 C          59.8765   87.6566    9.8353 C.3     1  UNL1        0.0474
     18 C          60.9989   86.6644    9.7592 C.ar    1  UNL1       -0.0205
     19 C          61.4765   85.9754   11.0030 C.ar    1  UNL1       -0.0042
     20 C          62.5989   84.9832   10.9269 C.ar    1  UNL1       -0.0003
     21 C          63.2438   84.6801    9.6069 C.ar    1  UNL1       -0.0000
     22 C          62.7662   85.3692    8.3631 C.ar    1  UNL1       -0.0003
     23 C          61.6438   86.3613    8.4392 C.ar    1  UNL1       -0.0042
     24 C          61.8595   89.7732   12.9090 C.3     1  UNL1        0.0924
     25 C          63.2007   89.7541   13.5805 C.3     1  UNL1        0.0950
     26 N          63.9944   88.4825   13.6344 N.am    1  UNL1       -0.2706
     27 C          64.0817   87.7067   14.9152 C.2     1  UNL1        0.4020
     28 O          63.3753   88.2024   16.1420 O.2     1  UNL1       -0.2264
     29 H          64.4581   88.1571   12.8292 H       1  UNL1        0.1527
     30 O          64.8755   86.4351   14.9692 O.3     1  UNL1       -0.4291
     31 C          64.2957   85.2162   15.6235 C.3     1  UNL1        0.2447
     32 C          63.8287   84.0644   14.7836 C.ar    1  UNL1        0.0714
     33 C          64.5516   83.4825   13.6051 C.ar    1  UNL1        0.1053
     34 N          63.7266   82.3508   13.0678 N.ar    1  UNL1       -0.2350
     35 C          62.4938   82.2333   13.9143 C.ar    1  UNL1        0.1343
     36 S          62.5570   83.2924   14.9747 S.2     1  UNL1       -0.0652
     37 C          63.7481   91.0068   14.1980 C.3     1  UNL1        0.0474
     38 C          65.1690   91.4116   13.9390 C.ar    1  UNL1       -0.0205
     39 C          65.5403   92.0534   12.6350 C.ar    1  UNL1       -0.0042
     40 C          66.9612   92.4582   12.3761 C.ar    1  UNL1       -0.0003
     41 C          68.0109   92.2213   13.4210 C.ar    1  UNL1       -0.0000
     42 C          67.6397   91.5796   14.7250 C.ar    1  UNL1       -0.0003
     43 C          66.2187   91.1747   14.9840 C.ar    1  UNL1       -0.0042
@<TRIPOS>BOND
     1     2     3    1
     2     3     1    1
     3     1    24    1
     4    25    24    1
     5    25    37    1
     6    37    38    1
     7    38    39   ar
     8    39    40   ar
     9    40    41   ar
    10    41    42   ar
    11    42    43   ar
    12    25    26    1
    13    26    27   am
    14    27    28    2
    15    27    30    1
    16    30    31    1
    17    31    32    1
    18    32    33   ar
    19    33    34   ar
    20    34    35   ar
    21    35    36   ar
    22     1     4    1
    23     5     4    1
    24     5    17    1
    25    17    18    1
    26    18    19   ar
    27    19    20   ar
    28    20    21   ar
    29    21    22   ar
    30    22    23   ar
    31     5     6    1
    32     6     7   am
    33     7     8    2
    34     7    10    1
    35    10    11    1
    36    11    12    1
    37    12    13   ar
    38    13    14   ar
    39    14    15   ar
    40    15    16   ar
    41    43    38   ar
    42    36    32   ar
    43    23    18   ar
    44    16    12   ar
    45    26    29    1
    46     6     9    1
@<TRIPOS>MOLECULE
*****
 43 46 0 0 0
SMALL
GASTEIGER

@<TRIPOS>ATOM
      1 N          62.0547   89.9411   11.5311 N.3     1  UNL1       -0.2699
      2 C          63.4772   91.5955   10.1206 C.3     1  UNL1        0.0188
      3 C          63.1387   90.1912   10.5251 C.3     1  UNL1        0.0722
      4 C          60.6356   89.7678   11.0771 C.3     1  UNL1        0.0924
      5 C          60.3217   88.8555    9.9285 C.3     1  UNL1        0.0950
      6 N          60.2445   89.4039    8.5345 N.am    1  UNL1       -0.2706
      7 C          59.3819   88.7290    7.5097 C.2     1  UNL1        0.4020
      8 O          58.5964   87.5056    7.8789 O.2     1  UNL1       -0.2264
      9 H          60.7601   90.2069    8.2921 H       1  UNL1        0.1527
     10 O          59.3047   89.2774    6.1157 O.3     1  UNL1       -0.4274
     11 C          58.9500   90.7182    5.8951 C.3     1  UNL1        0.2621
     12 C          59.6044   91.4907    4.7884 C.ar    1  UNL1        0.1323
     13 N          58.9415   92.5163    3.9173 N.ar    1  UNL1       -0.2374
     14 C          59.9640   93.0328    2.9490 C.ar    1  UNL1        0.1062
     15 C          61.2589   92.3264    3.2216 C.ar    1  UNL1        0.0573
     16 S          61.0366   91.3734    4.3584 S.2     1  UNL1       -0.0666
     17 C          60.0850   87.3948   10.1740 C.3     1  UNL1        0.0474
     18 C          61.2102   86.4156   10.0153 C.ar    1  UNL1       -0.0205
     19 C          61.8513   86.2209    8.6733 C.ar    1  UNL1       -0.0042
     20 C          62.9765   85.2417    8.5146 C.ar    1  UNL1       -0.0003
     21 C          63.4606   84.4573    9.6980 C.ar    1  UNL1       -0.0000
     22 C          62.8194   84.6520   11.0401 C.ar    1  UNL1       -0.0003
     23 C          61.6942   85.6312   11.1987 C.ar    1  UNL1       -0.0042
     24 C          62.3896   89.8643   12.9912 C.3     1  UNL1        0.0924
     25 C          63.8150   89.6921   13.4256 C.3     1  UNL1        0.0950
     26 N          64.7358   90.8756   13.4633 N.am    1  UNL1       -0.2706
     27 C          64.7026   91.8147   14.6325 C.2     1  UNL1        0.4020
     28 O          63.7487   91.5703   15.7640 O.2     1  UNL1       -0.2264
     29 H          65.3619   91.0360   12.7207 H       1  UNL1        0.1527
     30 O          65.6234   92.9981   14.6703 O.3     1  UNL1       -0.4291
     31 C          66.8186   93.0477   13.7652 C.3     1  UNL1        0.2447
     32 C          66.6675   93.5168   12.3484 C.ar    1  UNL1        0.0714
     33 C          66.1958   94.8729   11.9142 C.ar    1  UNL1        0.1053
     34 N          66.1984   94.9064   10.4146 N.ar    1  UNL1       -0.2350
     35 C          66.6716   93.5709    9.9219 C.ar    1  UNL1        0.1343
     36 S          66.9615   92.7121   11.1171 S.2     1  UNL1       -0.0652
     37 C          64.3195   88.3363   13.8223 C.3     1  UNL1        0.0474
     38 C          63.8551   87.7084   15.1029 C.ar    1  UNL1       -0.0205
     39 C          63.9100   86.2188   15.2710 C.ar    1  UNL1       -0.0042
     40 C          63.4456   85.5909   16.5516 C.ar    1  UNL1       -0.0003
     41 C          62.9263   86.4525   17.6642 C.ar    1  UNL1       -0.0000
     42 C          62.8714   87.9420   17.4962 C.ar    1  UNL1       -0.0003
     43 C          63.3358   88.5700   16.2156 C.ar    1  UNL1       -0.0042
@<TRIPOS>BOND
     1     2     3    1
     2     3     1    1
     3     1    24    1
     4    25    24    1
     5    25    37    1
     6    37    38    1
     7    38    39   ar
     8    39    40   ar
     9    40    41   ar
    10    41    42   ar
    11    42    43   ar
    12    25    26    1
    13    26    27   am
    14    27    28    2
    15    27    30    1
    16    30    31    1
    17    31    32    1
    18    32    33   ar
    19    33    34   ar
    20    34    35   ar
    21    35    36   ar
    22     1     4    1
    23     5     4    1
    24     5    17    1
    25    17    18    1
    26    18    19   ar
    27    19    20   ar
    28    20    21   ar
    29    21    22   ar
    30    22    23   ar
    31     5     6    1
    32     6     7   am
    33     7     8    2
    34     7    10    1
    35    10    11    1
    36    11    12    1
    37    12    13   ar
    38    13    14   ar
    39    14    15   ar
    40    15    16   ar
    41    43    38   ar
    42    36    32   ar
    43    23    18   ar
    44    16    12   ar
    45    26    29    1
    46     6     9    1
@<TRIPOS>MOLECULE
*****
 43 46 0 0 0
SMALL
GASTEIGER

@<TRIPOS>ATOM
      1 N          62.5548   89.6827   11.7760 N.3     1  UNL1       -0.2699
      2 C          63.2753   91.4466   10.0098 C.3     1  UNL1        0.0188
      3 C          62.2186   90.8429   10.8867 C.3     1  UNL1        0.0722
      4 C          63.8516   89.6666   12.5297 C.3     1  UNL1        0.0924
      5 C          64.1319   90.7175   13.5626 C.3     1  UNL1        0.0950
      6 N          64.7880   92.0059   13.1629 N.am    1  UNL1       -0.2706
      7 C          66.1840   92.3100   13.6197 C.2     1  UNL1        0.4020
      8 O          66.9240   91.3257   14.4762 O.2     1  UNL1       -0.2264
      9 H          64.3023   92.6519   12.6007 H       1  UNL1        0.1527
     10 O          66.8400   93.5983   13.2200 O.3     1  UNL1       -0.4274
     11 C          66.2542   94.4272   12.1154 C.3     1  UNL1        0.2621
     12 C          66.8429   94.3641   10.7373 C.ar    1  UNL1        0.1323
     13 N          67.7335   93.2794   10.2077 N.ar    1  UNL1       -0.2374
     14 C          68.0855   93.6195    8.7899 C.ar    1  UNL1        0.1062
     15 C          67.4124   94.9145    8.4431 C.ar    1  UNL1        0.0573
     16 S          66.6445   95.3746    9.6467 S.2     1  UNL1       -0.0666
     17 C          63.7562   90.4802   14.9952 C.3     1  UNL1        0.0474
     18 C          63.6929   89.0810   15.5321 C.ar    1  UNL1       -0.0205
     19 C          64.3803   87.9656   14.8017 C.ar    1  UNL1       -0.0042
     20 C          64.3170   86.5664   15.3385 C.ar    1  UNL1       -0.0003
     21 C          63.5662   86.2825   16.6058 C.ar    1  UNL1       -0.0000
     22 C          62.8787   87.3979   17.3361 C.ar    1  UNL1       -0.0003
     23 C          62.9421   88.7971   16.7992 C.ar    1  UNL1       -0.0042
     24 C          61.5942   88.5387   11.9118 C.3     1  UNL1        0.0924
     25 C          61.7670   87.3102   11.0686 C.3     1  UNL1        0.0950
     26 N          62.9535   86.4170   11.2789 N.am    1  UNL1       -0.2706
     27 C          62.9026   85.3339   12.3153 C.2     1  UNL1        0.4020
     28 O          61.6651   85.1440   13.1415 O.2     1  UNL1       -0.2264
     29 H          63.7657   86.5417   10.7366 H       1  UNL1        0.1527
     30 O          64.0891   84.4407   12.5256 O.3     1  UNL1       -0.4291
     31 C          64.1128   83.4847   13.6812 C.3     1  UNL1        0.2447
     32 C          63.2034   82.2916   13.6864 C.ar    1  UNL1        0.0714
     33 C          61.9752   82.1229   14.5307 C.ar    1  UNL1        0.1053
     34 N          61.3754   80.7850   14.2144 N.ar    1  UNL1       -0.2350
     35 C          62.2330   80.1268   13.1745 C.ar    1  UNL1        0.1343
     36 S          63.3628   81.0580   12.8482 S.2     1  UNL1       -0.0652
     37 C          60.7531   86.9750   10.0151 C.3     1  UNL1        0.0474
     38 C          61.1608   86.1869    8.8057 C.ar    1  UNL1       -0.0205
     39 C          62.5771   85.7145    8.6607 C.ar    1  UNL1       -0.0042
     40 C          62.9848   84.9264    7.4513 C.ar    1  UNL1       -0.0003
     41 C          61.9762   84.6107    6.3868 C.ar    1  UNL1       -0.0000
     42 C          60.5599   85.0830    6.5318 C.ar    1  UNL1       -0.0003
     43 C          60.1522   85.8711    7.7412 C.ar    1  UNL1       -0.0042
@<TRIPOS>BOND
     1     2     3    1
     2     3     1    1
     3     1    24    1
     4    25    24    1
     5    25    37    1
     6    37    38    1
     7    38    39   ar
     8    39    40   ar
     9    40    41   ar
    10    41    42   ar
    11    42    43   ar
    12    25    26    1
    13    26    27   am
    14    27    28    2
    15    27    30    1
    16    30    31    1
    17    31    32    1
    18    32    33   ar
    19    33    34   ar
    20    34    35   ar
    21    35    36   ar
    22     1     4    1
    23     5     4    1
    24     5    17    1
    25    17    18    1
    26    18    19   ar
    27    19    20   ar
    28    20    21   ar
    29    21    22   ar
    30    22    23   ar
    31     5     6    1
    32     6     7   am
    33     7     8    2
    34     7    10    1
    35    10    11    1
    36    11    12    1
    37    12    13   ar
    38    13    14   ar
    39    14    15   ar
    40    15    16   ar
    41    43    38   ar
    42    36    32   ar
    43    23    18   ar
    44    16    12   ar
    45    26    29    1
    46     6     9    1
@<TRIPOS>MOLECULE
*****
 43 46 0 0 0
SMALL
GASTEIGER

@<TRIPOS>ATOM
      1 N          62.7038   89.3776   12.0272 N.3     1  UNL1       -0.2699
      2 C          63.3956   91.2699   10.3869 C.3     1  UNL1        0.0188
      3 C          63.4624   90.6409   11.7471 C.3     1  UNL1        0.0722
      4 C          61.2822   89.2391   11.5690 C.3     1  UNL1        0.0924
      5 C          60.9351   88.2607   10.4864 C.3     1  UNL1        0.0950
      6 N          60.7677   88.7342    9.0729 N.am    1  UNL1       -0.2706
      7 C          59.6832   88.1573    8.2121 C.2     1  UNL1        0.4020
      8 O          58.7662   87.1067    8.7647 O.2     1  UNL1       -0.2264
      9 H          61.3696   89.4238    8.7102 H       1  UNL1        0.1527
     10 O          59.5159   88.6309    6.7987 O.3     1  UNL1       -0.4274
     11 C          58.7826   89.9090    6.5179 C.3     1  UNL1        0.2621
     12 C          59.2892   90.8482    5.4637 C.ar    1  UNL1        0.1323
     13 N          60.7146   90.9870    5.0178 N.ar    1  UNL1       -0.2374
     14 C          60.7657   92.0381    3.9489 C.ar    1  UNL1        0.1062
     15 C          59.3717   92.5489    3.7342 C.ar    1  UNL1        0.0573
     16 S          58.4592   91.8135    4.6704 S.2     1  UNL1       -0.0666
     17 C          60.7554   86.8086   10.8171 C.3     1  UNL1        0.0474
     18 C          61.7869   85.8082   10.3868 C.ar    1  UNL1       -0.0205
     19 C          62.2894   84.7833   11.3600 C.ar    1  UNL1       -0.0042
     20 C          63.3209   83.7829   10.9298 C.ar    1  UNL1       -0.0003
     21 C          63.8499   83.8073    9.5263 C.ar    1  UNL1       -0.0000
     22 C          63.3474   84.8322    8.5531 C.ar    1  UNL1       -0.0003
     23 C          62.3159   85.8327    8.9834 C.ar    1  UNL1       -0.0042
     24 C          63.3668   88.2527   12.7655 C.3     1  UNL1        0.0924
     25 C          64.2340   88.5440   13.9543 C.3     1  UNL1        0.0950
     26 N          64.4013   89.9558   14.4327 N.am    1  UNL1       -0.2706
     27 C          63.5355   90.4802   15.5396 C.2     1  UNL1        0.4020
     28 O          62.5023   89.5929   16.1682 O.2     1  UNL1       -0.2264
     29 H          65.0794   90.5382   14.0201 H       1  UNL1        0.1527
     30 O          63.7028   91.8919   16.0180 O.3     1  UNL1       -0.4291
     31 C          65.0091   92.3340   16.6080 C.3     1  UNL1        0.2447
     32 C          66.1956   92.5601   15.7184 C.ar    1  UNL1        0.0714
     33 C          66.1515   92.9915   14.2825 C.ar    1  UNL1        0.1053
     34 N          67.5630   93.0925   13.7852 N.ar    1  UNL1       -0.2350
     35 C          68.4796   92.7236   14.9139 C.ar    1  UNL1        0.1343
     36 S          67.6345   92.3945   16.1086 S.2     1  UNL1       -0.0652
     37 C          64.9338   87.4234   14.6647 C.3     1  UNL1        0.0474
     38 C          64.2171   86.1294   14.9132 C.ar    1  UNL1       -0.0205
     39 C          64.6362   84.8877   14.1833 C.ar    1  UNL1       -0.0042
     40 C          63.9195   83.5937   14.4318 C.ar    1  UNL1       -0.0003
     41 C          62.7837   83.5413   15.4102 C.ar    1  UNL1       -0.0000
     42 C          62.3645   84.7829   16.1400 C.ar    1  UNL1       -0.0003
     43 C          63.0813   86.0770   15.8915 C.ar    1  UNL1       -0.0042
@<TRIPOS>BOND
     1     2     3    1
     2     3     1    1
     3     1    24    1
     4    25    24    1
     5    25    37    1
     6    37    38    1
     7    38    39   ar
     8    39    40   ar
     9    40    41   ar
    10    41    42   ar
    11    42    43   ar
    12    25    26    1
    13    26    27   am
    14    27    28    2
    15    27    30    1
    16    30    31    1
    17    31    32    1
    18    32    33   ar
    19    33    34   ar
    20    34    35   ar
    21    35    36   ar
    22     1     4    1
    23     5     4    1
    24     5    17    1
    25    17    18    1
    26    18    19   ar
    27    19    20   ar
    28    20    21   ar
    29    21    22   ar
    30    22    23   ar
    31     5     6    1
    32     6     7   am
    33     7     8    2
    34     7    10    1
    35    10    11    1
    36    11    12    1
    37    12    13   ar
    38    13    14   ar
    39    14    15   ar
    40    15    16   ar
    41    43    38   ar
    42    36    32   ar
    43    23    18   ar
    44    16    12   ar
    45    26    29    1
    46     6     9    1
@<TRIPOS>MOLECULE
*****
 43 46 0 0 0
SMALL
GASTEIGER

@<TRIPOS>ATOM
      1 N          63.5067   87.1559   15.8969 N.3     1  UNL1       -0.2699
      2 C          62.7697   86.7265   18.3510 C.3     1  UNL1        0.0188
      3 C          62.5236   86.5890   16.8777 C.3     1  UNL1        0.0722
      4 C          63.6249   88.6416   15.7272 C.3     1  UNL1        0.0924
      5 C          64.2010   89.2087   14.4637 C.3     1  UNL1        0.0950
      6 N          65.1732   90.3492   14.5285 N.am    1  UNL1       -0.2706
      7 C          64.8158   91.5977   15.2791 C.2     1  UNL1        0.4020
      8 O          63.4862   91.7057   15.9651 O.2     1  UNL1       -0.2264
      9 H          66.0458   90.2783   14.0782 H       1  UNL1        0.1527
     10 O          65.7880   92.7381   15.3438 O.3     1  UNL1       -0.4274
     11 C          66.8159   92.9095   14.2649 C.3     1  UNL1        0.2621
     12 C          66.4179   93.4714   12.9323 C.ar    1  UNL1        0.1323
     13 N          66.4252   94.9216   12.5491 N.ar    1  UNL1       -0.2374
     14 C          65.9546   95.0282   11.1289 C.ar    1  UNL1        0.1062
     15 C          65.6563   93.6438   10.6343 C.ar    1  UNL1        0.0573
     16 S          65.9427   92.6817   11.7489 S.2     1  UNL1       -0.0666
     17 C          63.8049   88.6353   13.1354 C.3     1  UNL1        0.0474
     18 C          62.7678   89.3253   12.2999 C.ar    1  UNL1       -0.0205
     19 C          63.1595   89.9811   11.0089 C.ar    1  UNL1       -0.0042
     20 C          62.1224   90.6711   10.1733 C.ar    1  UNL1       -0.0003
     21 C          60.6936   90.7054   10.6287 C.ar    1  UNL1       -0.0000
     22 C          60.3019   90.0496   11.9196 C.ar    1  UNL1       -0.0003
     23 C          61.3391   89.3596   12.7552 C.ar    1  UNL1       -0.0042
     24 C          64.3716   86.2372   15.0859 C.3     1  UNL1        0.0924
     25 C          63.7558   85.0884   14.3435 C.3     1  UNL1        0.0950
     26 N          62.6608   85.3384   13.3494 N.am    1  UNL1       -0.2706
     27 C          62.8565   84.9679   11.9091 C.2     1  UNL1        0.4020
     28 O          64.1472   84.3475   11.4629 O.2     1  UNL1       -0.2264
     29 H          61.8136   85.7456   13.6423 H       1  UNL1        0.1527
     30 O          61.7614   85.2179   10.9150 O.3     1  UNL1       -0.4291
     31 C          61.7436   86.4919   10.1233 C.3     1  UNL1        0.2447
     32 C          60.7477   86.6731    9.0163 C.ar    1  UNL1        0.0714
     33 C          60.5174   85.7282    7.8742 C.ar    1  UNL1        0.1053
     34 N          59.4347   86.3021    7.0090 N.ar    1  UNL1       -0.2350
     35 C          58.9960   87.6016    7.6163 C.ar    1  UNL1        0.1343
     36 S          59.8075   87.8309    8.8569 S.2     1  UNL1       -0.0652
     37 C          64.2352   83.6895   14.5954 C.3     1  UNL1        0.0474
     38 C          63.3913   82.5212   14.1797 C.ar    1  UNL1       -0.0205
     39 C          61.9882   82.3889   14.6938 C.ar    1  UNL1       -0.0042
     40 C          61.1443   81.2206   14.2781 C.ar    1  UNL1       -0.0003
     41 C          61.7032   80.1846   13.3484 C.ar    1  UNL1       -0.0000
     42 C          63.1062   80.3169   12.8344 C.ar    1  UNL1       -0.0003
     43 C          63.9502   81.4852   13.2501 C.ar    1  UNL1       -0.0042
@<TRIPOS>BOND
     1     2     3    1
     2     3     1    1
     3     1    24    1
     4    25    24    1
     5    25    37    1
     6    37    38    1
     7    38    39   ar
     8    39    40   ar
     9    40    41   ar
    10    41    42   ar
    11    42    43   ar
    12    25    26    1
    13    26    27   am
    14    27    28    2
    15    27    30    1
    16    30    31    1
    17    31    32    1
    18    32    33   ar
    19    33    34   ar
    20    34    35   ar
    21    35    36   ar
    22     1     4    1
    23     5     4    1
    24     5    17    1
    25    17    18    1
    26    18    19   ar
    27    19    20   ar
    28    20    21   ar
    29    21    22   ar
    30    22    23   ar
    31     5     6    1
    32     6     7   am
    33     7     8    2
    34     7    10    1
    35    10    11    1
    36    11    12    1
    37    12    13   ar
    38    13    14   ar
    39    14    15   ar
    40    15    16   ar
    41    43    38   ar
    42    36    32   ar
    43    23    18   ar
    44    16    12   ar
    45    26    29    1
    46     6     9    1
@<TRIPOS>MOLECULE
*****
 43 46 0 0 0
SMALL
GASTEIGER

@<TRIPOS>ATOM
      1 N          62.4060   85.9641   11.0569 N.3     1  UNL1       -0.2699
      2 C          62.9475   85.4975    8.5591 C.3     1  UNL1        0.0188
      3 C          62.0730   85.2884    9.7598 C.3     1  UNL1        0.0722
      4 C          62.8787   87.3876   11.0613 C.3     1  UNL1        0.0924
      5 C          61.9639   88.4803   11.5294 C.3     1  UNL1        0.0950
      6 N          62.5127   89.6304   12.3207 N.am    1  UNL1       -0.2706
      7 C          63.1895   90.7694   11.6175 C.2     1  UNL1        0.4020
      8 O          63.3176   90.7583   10.1230 O.2     1  UNL1       -0.2264
      9 H          62.4286   89.6377   13.3016 H       1  UNL1        0.1527
     10 O          63.7383   91.9194   12.4088 O.3     1  UNL1       -0.4274
     11 C          65.0857   92.4863   12.0723 C.3     1  UNL1        0.2621
     12 C          66.1135   92.6675   13.1496 C.ar    1  UNL1        0.1323
     13 N          66.0724   93.6925   14.2440 N.ar    1  UNL1       -0.2374
     14 C          67.2964   93.5140   15.0926 C.ar    1  UNL1        0.1062
     15 C          68.0940   92.3786   14.5226 C.ar    1  UNL1        0.0573
     16 S          67.3629   91.8555   13.3218 S.2     1  UNL1       -0.0666
     17 C          60.5002   88.4228   11.2063 C.3     1  UNL1        0.0474
     18 C          60.0501   88.3416    9.7778 C.ar    1  UNL1       -0.0205
     19 C          59.4148   87.0845    9.2619 C.ar    1  UNL1       -0.0042
     20 C          58.9647   87.0033    7.8334 C.ar    1  UNL1       -0.0003
     21 C          59.1499   88.1793    6.9206 C.ar    1  UNL1       -0.0000
     22 C          59.7852   89.4363    7.4365 C.ar    1  UNL1       -0.0003
     23 C          60.2353   89.5175    8.8652 C.ar    1  UNL1       -0.0042
     24 C          62.2663   85.2162   12.3496 C.3     1  UNL1        0.0924
     25 C          63.4844   84.8839   13.1593 C.3     1  UNL1        0.0950
     26 N          63.7922   85.6611   14.4048 N.am    1  UNL1       -0.2706
     27 C          63.1600   85.2708   15.7078 C.2     1  UNL1        0.4020
     28 O          62.2201   84.1032   15.7655 O.2     1  UNL1       -0.2264
     29 H          64.4091   86.4274   14.3669 H       1  UNL1        0.1527
     30 O          63.4677   86.0480   16.9533 O.3     1  UNL1       -0.4291
     31 C          62.8858   87.4170   17.1460 C.3     1  UNL1        0.2447
     32 C          63.4261   88.5783   16.3652 C.ar    1  UNL1        0.0714
     33 C          64.2976   88.4929   15.1473 C.ar    1  UNL1        0.1053
     34 N          64.5998   89.8906   14.6946 N.ar    1  UNL1       -0.2350
     35 C          63.9149   90.8399   15.6326 C.ar    1  UNL1        0.1343
     36 S          63.1896   90.0289   16.6651 S.2     1  UNL1       -0.0652
     37 C          64.3949   83.7742   12.7235 C.3     1  UNL1        0.0474
     38 C          63.8181   82.4724   12.2519 C.ar    1  UNL1       -0.0205
     39 C          63.2113   81.5195   13.2388 C.ar    1  UNL1       -0.0042
     40 C          62.6345   80.2177   12.7672 C.ar    1  UNL1       -0.0003
     41 C          62.6646   79.8685   11.3088 C.ar    1  UNL1       -0.0000
     42 C          63.2714   80.8213   10.3218 C.ar    1  UNL1       -0.0003
     43 C          63.8482   82.1232   10.7934 C.ar    1  UNL1       -0.0042
@<TRIPOS>BOND
     1     2     3    1
     2     3     1    1
     3     1    24    1
     4    25    24    1
     5    25    37    1
     6    37    38    1
     7    38    39   ar
     8    39    40   ar
     9    40    41   ar
    10    41    42   ar
    11    42    43   ar
    12    25    26    1
    13    26    27   am
    14    27    28    2
    15    27    30    1
    16    30    31    1
    17    31    32    1
    18    32    33   ar
    19    33    34   ar
    20    34    35   ar
    21    35    36   ar
    22     1     4    1
    23     5     4    1
    24     5    17    1
    25    17    18    1
    26    18    19   ar
    27    19    20   ar
    28    20    21   ar
    29    21    22   ar
    30    22    23   ar
    31     5     6    1
    32     6     7   am
    33     7     8    2
    34     7    10    1
    35    10    11    1
    36    11    12    1
    37    12    13   ar
    38    13    14   ar
    39    14    15   ar
    40    15    16   ar
    41    43    38   ar
    42    36    32   ar
    43    23    18   ar
    44    16    12   ar
    45    26    29    1
    46     6     9    1
