@<TRIPOS>MOLECULE
*****
 23 25 0 0 0
SMALL
GASTEIGER

@<TRIPOS>ATOM
      1 C          63.8595   90.0946   13.4665 C.ar    1  UNL1       -0.0017
      2 C          63.1202   90.8048   12.3715 C.ar    1  UNL1       -0.0025
      3 C          62.4310   90.0159   11.2979 C.ar    1  UNL1       -0.0003
      4 C          62.4810   88.5169   11.3193 C.ar    1  UNL1        0.0000
      5 C          63.2203   87.8067   12.4143 C.ar    1  UNL1       -0.0003
      6 C          63.9095   88.5956   13.4879 C.ar    1  UNL1       -0.0025
      7 C          61.7917   87.7281   10.2456 C.ar    1  UNL1        0.0010
      8 C          60.3354   87.9544    9.9664 C.ar    1  UNL1        0.0032
      9 C          59.6462   87.1656    8.8927 C.ar    1  UNL1        0.0375
     10 C          60.4132   86.1505    8.0983 C.ar    1  UNL1        0.1441
     11 O          59.7240   85.3617    7.0246 O.3     1  UNL1       -0.5047
     12 C          61.8696   85.9242    8.3775 C.ar    1  UNL1        0.0912
     13 CL         62.6366   84.9090    7.5831 Cl      1  UNL1       -0.0791
     14 C          62.5588   86.7130    9.4512 C.ar    1  UNL1        0.0145
     15 H          58.8143   85.5030    6.8502 H       1  UNL1        0.2922
     16 C          64.5487   90.8834   14.5402 C.3     1  UNL1        0.1095
     17 N          65.8327   91.5979   14.2387 N.ar    1  UNL1       -0.3058
     18 C          67.1151   91.4683   15.0060 C.ar    1  UNL1        0.0982
     19 C          68.1347   92.3578   14.3586 C.ar    1  UNL1        0.1193
     20 N          67.4825   93.0372   13.1911 N.ar    1  UNL1       -0.2223
     21 C          66.0598   92.5676   13.1170 C.ar    1  UNL1        0.1788
     22 C          63.1973   89.7870   16.4693 C.3     1  UNL1        0.0024
     23 C          63.9541   90.9576   15.9152 C.3     1  UNL1        0.0272
@<TRIPOS>BOND
     1    22    23    1
     2    23    16    1
     3    16     1    1
     4     1     2   ar
     5     2     3   ar
     6     3     4   ar
     7     4     7    1
     8     7     8   ar
     9     8     9   ar
    10     9    10   ar
    11    10    11    1
    12    10    12   ar
    13    12    13    1
    14    12    14   ar
    15     4     5   ar
    16     5     6   ar
    17    16    17    1
    18    17    18   ar
    19    18    19   ar
    20    19    20   ar
    21    20    21   ar
    22     6     1   ar
    23    21    17   ar
    24    14     7   ar
    25    11    15    1
@<TRIPOS>MOLECULE
*****
 23 25 0 0 0
SMALL
GASTEIGER

@<TRIPOS>ATOM
      1 C          63.8730   84.6340   12.9975 C.ar    1  UNL1       -0.0017
      2 C          63.1761   85.7940   12.3506 C.ar    1  UNL1       -0.0025
      3 C          63.2435   87.1545   12.9786 C.ar    1  UNL1       -0.0003
      4 C          64.0079   87.3549   14.2536 C.ar    1  UNL1        0.0000
      5 C          64.7048   86.1949   14.9005 C.ar    1  UNL1       -0.0003
      6 C          64.6374   84.8344   14.2725 C.ar    1  UNL1       -0.0025
      7 C          64.0753   88.7155   14.8817 C.ar    1  UNL1        0.0010
      8 C          63.3204   88.9956   16.1472 C.ar    1  UNL1        0.0032
      9 C          63.3878   90.3561   16.7753 C.ar    1  UNL1        0.0375
     10 C          64.2101   91.4366   16.1377 C.ar    1  UNL1        0.1441
     11 O          64.2775   92.7971   16.7657 O.3     1  UNL1       -0.5047
     12 C          64.9650   91.1564   14.8721 C.ar    1  UNL1        0.0912
     13 CL         65.7873   92.2369   14.2346 Cl      1  UNL1       -0.0791
     14 C          64.8976   89.7959   14.2441 C.ar    1  UNL1        0.0145
     15 H          63.8060   92.9721   17.5563 H       1  UNL1        0.2922
     16 C          63.8056   83.2734   12.3694 C.3     1  UNL1        0.1095
     17 N          62.9615   82.2010   12.9919 N.ar    1  UNL1       -0.3058
     18 C          62.9183   80.7604   12.5762 C.ar    1  UNL1        0.0982
     19 C          61.9425   80.0500   13.4667 C.ar    1  UNL1        0.1193
     20 N          61.3826   81.0515   14.4329 N.ar    1  UNL1       -0.2223
     21 C          62.0123   82.3809   14.1394 C.ar    1  UNL1        0.1788
     22 C          64.0147   83.3570    9.7811 C.3     1  UNL1        0.0024
     23 C          64.5823   82.9853   11.1190 C.3     1  UNL1        0.0272
@<TRIPOS>BOND
     1    22    23    1
     2    23    16    1
     3    16     1    1
     4     1     2   ar
     5     2     3   ar
     6     3     4   ar
     7     4     7    1
     8     7     8   ar
     9     8     9   ar
    10     9    10   ar
    11    10    11    1
    12    10    12   ar
    13    12    13    1
    14    12    14   ar
    15     4     5   ar
    16     5     6   ar
    17    16    17    1
    18    17    18   ar
    19    18    19   ar
    20    19    20   ar
    21    20    21   ar
    22     6     1   ar
    23    21    17   ar
    24    14     7   ar
    25    11    15    1
@<TRIPOS>MOLECULE
*****
 23 25 0 0 0
SMALL
GASTEIGER

@<TRIPOS>ATOM
      1 C          65.8592   92.6456   12.2776 C.ar    1  UNL1       -0.0017
      2 C          66.5632   92.3021   13.5567 C.ar    1  UNL1       -0.0025
      3 C          66.0222   91.2198   14.4432 C.ar    1  UNL1       -0.0003
      4 C          64.7773   90.4810   14.0505 C.ar    1  UNL1        0.0000
      5 C          64.0733   90.8246   12.7713 C.ar    1  UNL1       -0.0003
      6 C          64.6142   91.9069   11.8849 C.ar    1  UNL1       -0.0025
      7 C          64.2363   89.3987   14.9371 C.ar    1  UNL1        0.0010
      8 C          63.4452   89.7565   16.1602 C.ar    1  UNL1        0.0032
      9 C          62.9042   88.6741   17.0467 C.ar    1  UNL1        0.0375
     10 C          63.1544   87.2340   16.7101 C.ar    1  UNL1        0.1441
     11 O          62.6134   86.1516   17.5966 O.3     1  UNL1       -0.5047
     12 C          63.9455   86.8762   15.4869 C.ar    1  UNL1        0.0912
     13 CL         64.1957   85.4360   15.1503 Cl      1  UNL1       -0.0791
     14 C          64.4864   87.9585   14.6004 C.ar    1  UNL1        0.0145
     15 H          62.1192   86.3751   18.3606 H       1  UNL1        0.2922
     16 C          66.4002   93.7280   11.3910 C.3     1  UNL1        0.1095
     17 N          67.2410   93.3723   10.2008 N.ar    1  UNL1       -0.3058
     18 C          68.0630   92.1276   10.0422 C.ar    1  UNL1        0.0982
     19 C          68.7374   92.1849    8.7036 C.ar    1  UNL1        0.1193
     20 N          68.3322   93.4649    8.0348 N.ar    1  UNL1       -0.2223
     21 C          67.4073   94.1988    8.9601 C.ar    1  UNL1        0.1788
     22 C          65.3603   96.0051   10.6955 C.3     1  UNL1        0.0024
     23 C          66.1005   95.1660   11.6947 C.3     1  UNL1        0.0272
@<TRIPOS>BOND
     1    22    23    1
     2    23    16    1
     3    16     1    1
     4     1     2   ar
     5     2     3   ar
     6     3     4   ar
     7     4     7    1
     8     7     8   ar
     9     8     9   ar
    10     9    10   ar
    11    10    11    1
    12    10    12   ar
    13    12    13    1
    14    12    14   ar
    15     4     5   ar
    16     5     6   ar
    17    16    17    1
    18    17    18   ar
    19    18    19   ar
    20    19    20   ar
    21    20    21   ar
    22     6     1   ar
    23    21    17   ar
    24    14     7   ar
    25    11    15    1
@<TRIPOS>MOLECULE
*****
 23 25 0 0 0
SMALL
GASTEIGER

@<TRIPOS>ATOM
      1 C          64.4397   91.6061   11.7452 C.ar    1  UNL1       -0.0017
      2 C          63.9648   91.9123   10.3557 C.ar    1  UNL1       -0.0025
      3 C          62.9368   91.0355    9.7042 C.ar    1  UNL1       -0.0003
      4 C          62.3838   89.8525   10.4422 C.ar    1  UNL1        0.0000
      5 C          62.8587   89.5463   11.8317 C.ar    1  UNL1       -0.0003
      6 C          63.8866   90.4231   12.4832 C.ar    1  UNL1       -0.0025
      7 C          61.3558   88.9756    9.7907 C.ar    1  UNL1        0.0010
      8 C          61.1177   87.5877   10.3074 C.ar    1  UNL1        0.0032
      9 C          60.0897   86.7109    9.6559 C.ar    1  UNL1        0.0375
     10 C          59.2998   87.2220    8.4876 C.ar    1  UNL1        0.1441
     11 O          58.2719   86.3452    7.8361 O.3     1  UNL1       -0.5047
     12 C          59.5379   88.6100    7.9709 C.ar    1  UNL1        0.0912
     13 CL         58.7480   89.1211    6.8026 Cl      1  UNL1       -0.0791
     14 C          60.5659   89.4867    8.6224 C.ar    1  UNL1        0.0145
     15 H          58.1231   85.4782    8.1588 H       1  UNL1        0.2922
     16 C          65.4677   92.4830   12.3967 C.3     1  UNL1        0.1095
     17 N          66.1911   93.5187   11.5880 N.ar    1  UNL1       -0.3058
     18 C          65.9668   95.0005   11.6498 C.ar    1  UNL1        0.0982
     19 C          66.9029   95.6521   10.6756 C.ar    1  UNL1        0.1193
     20 N          67.7059   94.5729   10.0117 N.ar    1  UNL1       -0.2223
     21 C          67.2659   93.2544   10.5756 C.ar    1  UNL1        0.1788
     22 C          67.0953   91.7663   14.2907 C.3     1  UNL1        0.0024
     23 C          65.7722   92.3241   13.8568 C.3     1  UNL1        0.0272
@<TRIPOS>BOND
     1    22    23    1
     2    23    16    1
     3    16     1    1
     4     1     2   ar
     5     2     3   ar
     6     3     4   ar
     7     4     7    1
     8     7     8   ar
     9     8     9   ar
    10     9    10   ar
    11    10    11    1
    12    10    12   ar
    13    12    13    1
    14    12    14   ar
    15     4     5   ar
    16     5     6   ar
    17    16    17    1
    18    17    18   ar
    19    18    19   ar
    20    19    20   ar
    21    20    21   ar
    22     6     1   ar
    23    21    17   ar
    24    14     7   ar
    25    11    15    1
@<TRIPOS>MOLECULE
*****
 23 25 0 0 0
SMALL
GASTEIGER

@<TRIPOS>ATOM
      1 C          64.9164   92.1541   12.0511 C.ar    1  UNL1       -0.0017
      2 C          64.4902   92.3037   10.6207 C.ar    1  UNL1       -0.0025
      3 C          63.5051   91.3409   10.0271 C.ar    1  UNL1       -0.0003
      4 C          62.9462   90.2285   10.8638 C.ar    1  UNL1        0.0000
      5 C          63.3723   90.0789   12.2942 C.ar    1  UNL1       -0.0003
      6 C          64.3575   91.0417   12.8878 C.ar    1  UNL1       -0.0025
      7 C          61.9610   89.2656   10.2701 C.ar    1  UNL1        0.0010
      8 C          61.8252   87.8847   10.8400 C.ar    1  UNL1        0.0032
      9 C          60.8400   86.9219   10.2463 C.ar    1  UNL1        0.0375
     10 C          59.9907   87.3400    9.0827 C.ar    1  UNL1        0.1441
     11 O          59.0055   86.3772    8.4890 O.3     1  UNL1       -0.5047
     12 C          60.1265   88.7209    8.5129 C.ar    1  UNL1        0.0912
     13 CL         59.2771   89.1390    7.3494 Cl      1  UNL1       -0.0791
     14 C          61.1116   89.6837    9.1066 C.ar    1  UNL1        0.0145
     15 H          58.9207   85.5146    8.8450 H       1  UNL1        0.2922
     16 C          65.9016   93.1170   12.6448 C.3     1  UNL1        0.1095
     17 N          66.6517   92.7497   13.8907 N.ar    1  UNL1       -0.3058
     18 C          66.2645   93.1150   15.2930 C.ar    1  UNL1        0.0982
     19 C          67.2942   92.5436   16.2221 C.ar    1  UNL1        0.1193
     20 N          68.3178   91.8251   15.3940 N.ar    1  UNL1       -0.2223
     21 C          67.9207   91.9524   13.9531 C.ar    1  UNL1        0.1788
     22 C          66.9037   94.5265   10.7059 C.3     1  UNL1        0.0024
     23 C          66.1366   94.4471   11.9925 C.3     1  UNL1        0.0272
@<TRIPOS>BOND
     1    22    23    1
     2    23    16    1
     3    16     1    1
     4     1     2   ar
     5     2     3   ar
     6     3     4   ar
     7     4     7    1
     8     7     8   ar
     9     8     9   ar
    10     9    10   ar
    11    10    11    1
    12    10    12   ar
    13    12    13    1
    14    12    14   ar
    15     4     5   ar
    16     5     6   ar
    17    16    17    1
    18    17    18   ar
    19    18    19   ar
    20    19    20   ar
    21    20    21   ar
    22     6     1   ar
    23    21    17   ar
    24    14     7   ar
    25    11    15    1
@<TRIPOS>MOLECULE
*****
 23 25 0 0 0
SMALL
GASTEIGER

@<TRIPOS>ATOM
      1 C          63.4568   88.7931   12.7103 C.ar    1  UNL1       -0.0017
      2 C          64.0587   88.0049   13.8356 C.ar    1  UNL1       -0.0025
      3 C          63.8958   86.5144   13.8785 C.ar    1  UNL1       -0.0003
      4 C          63.1310   85.8121   12.7959 C.ar    1  UNL1        0.0000
      5 C          62.5291   86.6003   11.6706 C.ar    1  UNL1       -0.0003
      6 C          62.6920   88.0907   11.6277 C.ar    1  UNL1       -0.0025
      7 C          62.9682   84.3215   12.8388 C.ar    1  UNL1        0.0010
      8 C          62.5889   83.6452   14.1228 C.ar    1  UNL1        0.0032
      9 C          62.4261   82.1546   14.1657 C.ar    1  UNL1        0.0375
     10 C          62.6425   81.3405   12.9246 C.ar    1  UNL1        0.1441
     11 O          62.4796   79.8500   12.9674 O.3     1  UNL1       -0.5047
     12 C          63.0217   82.0170   11.6405 C.ar    1  UNL1        0.0912
     13 CL         63.2381   81.2028   10.3994 Cl      1  UNL1       -0.0791
     14 C          63.1846   83.5074   11.5977 C.ar    1  UNL1        0.0145
     15 H          62.2427   79.4274   13.7695 H       1  UNL1        0.2922
     16 C          63.6196   90.2836   12.6674 C.3     1  UNL1        0.1095
     17 N          64.3827   90.9862   13.7509 N.ar    1  UNL1       -0.3058
     18 C          65.7471   91.5948   13.6160 C.ar    1  UNL1        0.0982
     19 C          66.1231   92.1882   14.9413 C.ar    1  UNL1        0.1193
     20 N          64.9911   91.9464   15.8953 N.ar    1  UNL1       -0.2223
     21 C          63.9155   91.2036   15.1596 C.ar    1  UNL1        0.1788
     22 C          63.8984   91.6141   10.4532 C.3     1  UNL1        0.0024
     23 C          63.0194   91.0716   11.5410 C.3     1  UNL1        0.0272
@<TRIPOS>BOND
     1    22    23    1
     2    23    16    1
     3    16     1    1
     4     1     2   ar
     5     2     3   ar
     6     3     4   ar
     7     4     7    1
     8     7     8   ar
     9     8     9   ar
    10     9    10   ar
    11    10    11    1
    12    10    12   ar
    13    12    13    1
    14    12    14   ar
    15     4     5   ar
    16     5     6   ar
    17    16    17    1
    18    17    18   ar
    19    18    19   ar
    20    19    20   ar
    21    20    21   ar
    22     6     1   ar
    23    21    17   ar
    24    14     7   ar
    25    11    15    1
@<TRIPOS>MOLECULE
*****
 23 25 0 0 0
SMALL
GASTEIGER

@<TRIPOS>ATOM
      1 C          64.0307   88.6053   14.0053 C.ar    1  UNL1       -0.0017
      2 C          64.5353   87.5098   14.8970 C.ar    1  UNL1       -0.0025
      3 C          64.3243   86.0747   14.5148 C.ar    1  UNL1       -0.0003
      4 C          63.6087   85.7353   13.2409 C.ar    1  UNL1        0.0000
      5 C          63.1041   86.8308   12.3493 C.ar    1  UNL1       -0.0003
      6 C          63.3151   88.2658   12.7315 C.ar    1  UNL1       -0.0025
      7 C          63.3978   84.3001   12.8588 C.ar    1  UNL1        0.0010
      8 C          64.0421   83.7513   11.6204 C.ar    1  UNL1        0.0032
      9 C          63.8312   82.3161   11.2383 C.ar    1  UNL1        0.0375
     10 C          62.9759   81.4299   12.0945 C.ar    1  UNL1        0.1441
     11 O          62.7649   79.9949   11.7124 O.3     1  UNL1       -0.5047
     12 C          62.3315   81.9789   13.3329 C.ar    1  UNL1        0.0912
     13 CL         61.4762   81.0927   14.1891 Cl      1  UNL1       -0.0791
     14 C          62.5425   83.4139   13.7150 C.ar    1  UNL1        0.0145
     15 H          63.1674   79.6520   10.9388 H       1  UNL1        0.2922
     16 C          64.2416   90.0405   14.3875 C.3     1  UNL1        0.1095
     17 N          64.8932   90.9857   13.4221 N.ar    1  UNL1       -0.3058
     18 C          66.2562   91.5946   13.5684 C.ar    1  UNL1        0.0982
     19 C          66.5017   92.4732   12.3776 C.ar    1  UNL1        0.1193
     20 N          65.2903   92.4072   11.4954 N.ar    1  UNL1       -0.2223
     21 C          64.2963   91.4879   12.1410 C.ar    1  UNL1        0.1788
     22 C          63.0875   89.6030   16.6737 C.3     1  UNL1        0.0024
     23 C          63.8010   90.5303   15.7350 C.3     1  UNL1        0.0272
@<TRIPOS>BOND
     1    22    23    1
     2    23    16    1
     3    16     1    1
     4     1     2   ar
     5     2     3   ar
     6     3     4   ar
     7     4     7    1
     8     7     8   ar
     9     8     9   ar
    10     9    10   ar
    11    10    11    1
    12    10    12   ar
    13    12    13    1
    14    12    14   ar
    15     4     5   ar
    16     5     6   ar
    17    16    17    1
    18    17    18   ar
    19    18    19   ar
    20    19    20   ar
    21    20    21   ar
    22     6     1   ar
    23    21    17   ar
    24    14     7   ar
    25    11    15    1
@<TRIPOS>MOLECULE
*****
 23 25 0 0 0
SMALL
GASTEIGER

@<TRIPOS>ATOM
      1 C          64.9967   92.4660   11.8634 C.ar    1  UNL1       -0.0017
      2 C          64.5838   92.4974   10.4217 C.ar    1  UNL1       -0.0025
      3 C          63.6075   91.4858    9.8990 C.ar    1  UNL1       -0.0003
      4 C          63.0441   90.4426   10.8180 C.ar    1  UNL1        0.0000
      5 C          63.4571   90.4112   12.2596 C.ar    1  UNL1       -0.0003
      6 C          64.4334   91.4229   12.7823 C.ar    1  UNL1       -0.0025
      7 C          62.0678   89.4309   10.2952 C.ar    1  UNL1        0.0010
      8 C          60.9325   89.8679    9.4177 C.ar    1  UNL1        0.0032
      9 C          59.9561   88.8562    8.8949 C.ar    1  UNL1        0.0375
     10 C          60.1151   87.4075    9.2497 C.ar    1  UNL1        0.1441
     11 O          59.1389   86.3958    8.7270 O.3     1  UNL1       -0.5047
     12 C          61.2505   86.9705   10.1273 C.ar    1  UNL1        0.0912
     13 CL         61.4095   85.5217   10.4822 Cl      1  UNL1       -0.0791
     14 C          62.2268   87.9822   10.6500 C.ar    1  UNL1        0.0145
     15 H          58.4297   86.6687    8.1788 H       1  UNL1        0.2922
     16 C          65.9731   93.4777   12.3861 C.3     1  UNL1        0.1095
     17 N          66.4117   94.6168   11.5144 N.ar    1  UNL1       -0.3058
     18 C          67.1777   94.5000   10.2300 C.ar    1  UNL1        0.0982
     19 C          67.4008   95.8838    9.6957 C.ar    1  UNL1        0.1193
     20 N          66.7727   96.8559   10.6499 N.ar    1  UNL1       -0.2223
     21 C          66.1614   96.0729   11.7739 C.ar    1  UNL1        0.1788
     22 C          67.4858   92.2595   14.1118 C.3     1  UNL1        0.0024
     23 C          66.5108   93.3503   13.7806 C.3     1  UNL1        0.0272
@<TRIPOS>BOND
     1    22    23    1
     2    23    16    1
     3    16     1    1
     4     1     2   ar
     5     2     3   ar
     6     3     4   ar
     7     4     7    1
     8     7     8   ar
     9     8     9   ar
    10     9    10   ar
    11    10    11    1
    12    10    12   ar
    13    12    13    1
    14    12    14   ar
    15     4     5   ar
    16     5     6   ar
    17    16    17    1
    18    17    18   ar
    19    18    19   ar
    20    19    20   ar
    21    20    21   ar
    22     6     1   ar
    23    21    17   ar
    24    14     7   ar
    25    11    15    1
@<TRIPOS>MOLECULE
*****
 23 25 0 0 0
SMALL
GASTEIGER

@<TRIPOS>ATOM
      1 C          64.1994   89.0174   14.2073 C.ar    1  UNL1       -0.0017
      2 C          63.5302   88.6471   12.9170 C.ar    1  UNL1       -0.0025
      3 C          63.2642   87.2061   12.5968 C.ar    1  UNL1       -0.0003
      4 C          63.6672   86.1354   13.5669 C.ar    1  UNL1        0.0000
      5 C          64.3363   86.5057   14.8573 C.ar    1  UNL1       -0.0003
      6 C          64.6024   87.9468   15.1775 C.ar    1  UNL1       -0.0025
      7 C          63.4011   84.6943   13.2466 C.ar    1  UNL1        0.0010
      8 C          62.7272   83.8136   14.2567 C.ar    1  UNL1        0.0032
      9 C          62.4610   82.3725   13.9364 C.ar    1  UNL1        0.0375
     10 C          62.8689   81.8122   12.6061 C.ar    1  UNL1        0.1441
     11 O          62.6028   80.3712   12.2858 O.3     1  UNL1       -0.5047
     12 C          63.5428   82.6930   11.5960 C.ar    1  UNL1        0.0912
     13 CL         63.9506   82.1327   10.2657 Cl      1  UNL1       -0.0791
     14 C          63.8089   84.1340   11.9163 C.ar    1  UNL1        0.0145
     15 H          62.1818   79.8210   12.9167 H       1  UNL1        0.2922
     16 C          64.4655   90.4585   14.5276 C.3     1  UNL1        0.1095
     17 N          65.3157   91.2861   13.6099 N.ar    1  UNL1       -0.3058
     18 C          64.8578   91.9552   12.3479 C.ar    1  UNL1        0.0982
     19 C          66.0322   92.6725   11.7511 C.ar    1  UNL1        0.1193
     20 N          67.2160   92.4469   12.6443 N.ar    1  UNL1       -0.2223
     21 C          66.7732   91.5900   13.7931 C.ar    1  UNL1        0.1788
     22 C          64.6640   92.0922   16.5381 C.3     1  UNL1        0.0024
     23 C          63.8814   91.0720   15.7655 C.3     1  UNL1        0.0272
@<TRIPOS>BOND
     1    22    23    1
     2    23    16    1
     3    16     1    1
     4     1     2   ar
     5     2     3   ar
     6     3     4   ar
     7     4     7    1
     8     7     8   ar
     9     8     9   ar
    10     9    10   ar
    11    10    11    1
    12    10    12   ar
    13    12    13    1
    14    12    14   ar
    15     4     5   ar
    16     5     6   ar
    17    16    17    1
    18    17    18   ar
    19    18    19   ar
    20    19    20   ar
    21    20    21   ar
    22     6     1   ar
    23    21    17   ar
    24    14     7   ar
    25    11    15    1
