@<TRIPOS>MOLECULE
*****
 36 40 0 0 0
SMALL
GASTEIGER

@<TRIPOS>ATOM
      1 O          64.2466   88.2466   13.1863 O.2     1  UNL1       -0.2522
      2 C          64.2606   88.4520   14.6721 C.2     1  UNL1        0.3082
      3 N          64.6784   89.7751   15.2424 N.am    1  UNL1       -0.2681
      4 N          63.8570   87.3346   15.5876 N.am    1  UNL1       -0.2681
      5 H          64.6876   89.9100   16.2176 H       1  UNL1        0.1564
      6 H          63.8662   87.4694   16.5628 H       1  UNL1        0.1564
      7 C          65.0820   90.8926   14.3269 C.ar    1  UNL1        0.0516
      8 C          64.3151   91.1398   13.0616 C.ar    1  UNL1        0.0147
      9 C          64.7188   92.2572   12.1461 C.ar    1  UNL1        0.0010
     10 C          65.8894   93.1277   12.4959 C.ar    1  UNL1       -0.0014
     11 C          66.6563   92.8805   13.7611 C.ar    1  UNL1        0.0010
     12 C          66.2525   91.7630   14.6766 C.ar    1  UNL1        0.0147
     13 C          66.2930   94.2452   11.5803 C.2     1  UNL1        0.0158
     14 C          65.9096   95.6581   11.9071 C.2     1  UNL1        0.0487
     15 C          66.3132   96.7755   10.9916 C.2     1  UNL1        0.2355
     16 N          67.1003   96.4803    9.7492 N.2     1  UNL1       -0.0325
     17 C          67.4837   95.0674    9.4225 C.2     1  UNL1        0.3799
     18 N          68.2511   94.4748    8.2780 N.2     1  UNL1       -0.0106
     19 C          68.3218   92.9910    8.4862 C.2     1  UNL1        0.3351
     20 N          67.5980   92.6666    9.7593 N.2     1  UNL1       -0.2103
     21 C          67.0801   93.9499   10.3380 C.3     1  UNL1        0.2404
     22 C          63.4392   86.0115   15.0174 C.ar    1  UNL1        0.0517
     23 C          63.1954   84.8454   15.9288 C.ar    1  UNL1        0.0147
     24 C          62.7777   83.5224   15.3586 C.ar    1  UNL1        0.0014
     25 C          62.6038   83.3655   13.8770 C.ar    1  UNL1        0.0046
     26 C          62.8476   84.5317   12.9656 C.ar    1  UNL1        0.0546
     27 C          63.2653   85.8547   13.5358 C.ar    1  UNL1        0.0192
     28 C          62.6736   84.3748   11.4840 C.2     1  UNL1        0.2458
     29 O          62.9404   83.0497   10.8337 O.2     1  UNL1       -0.2701
     30 N          62.2330   85.5431   10.6527 N.am    1  UNL1       -0.3025
     31 H          62.0579   86.4128   11.0795 H       1  UNL1        0.1497
     32 C          62.0590   85.3862    9.1711 C.3     1  UNL1        0.0719
     33 C          60.8311   85.7395    8.3852 C.3     1  UNL1        0.0196
     34 C          61.0956   85.4202    6.9437 C.3     1  UNL1        0.0017
     35 C          62.4870   84.8695    6.8386 C.3     1  UNL1        0.0017
     36 C          63.0824   84.8485    8.2152 C.3     1  UNL1        0.0196
@<TRIPOS>BOND
     1     1     2    2
     2     2     3   am
     3     3     7    1
     4     7     8   ar
     5     8     9   ar
     6     9    10   ar
     7    10    13    1
     8    13    14    2
     9    14    15    1
    10    15    16    2
    11    16    17    1
    12    17    18    2
    13    18    19    1
    14    19    20    2
    15    20    21    1
    16    10    11   ar
    17    11    12   ar
    18     2     4   am
    19     4    22    1
    20    22    23   ar
    21    23    24   ar
    22    24    25   ar
    23    25    26   ar
    24    26    28    1
    25    28    29    2
    26    28    30   am
    27    30    32    1
    28    32    33    1
    29    33    34    1
    30    34    35    1
    31    35    36    1
    32    26    27   ar
    33    12     7   ar
    34    27    22   ar
    35    21    13    1
    36    36    32    1
    37    21    17    1
    38     3     5    1
    39     4     6    1
    40    30    31    1
@<TRIPOS>MOLECULE
*****
 36 40 0 0 0
SMALL
GASTEIGER

@<TRIPOS>ATOM
      1 O          61.0862   90.2216    5.0733 O.2     1  UNL1       -0.2522
      2 C          59.7569   90.8725    5.3166 C.2     1  UNL1        0.3082
      3 N          59.2792   91.9652    4.4066 N.am    1  UNL1       -0.2681
      4 N          58.9054   90.4309    6.4696 N.am    1  UNL1       -0.2681
      5 H          58.4068   92.3925    4.5662 H       1  UNL1        0.1564
      6 H          58.0329   90.8582    6.6292 H       1  UNL1        0.1564
      7 C          60.1308   92.4069    3.2535 C.ar    1  UNL1        0.0516
      8 C          59.5043   93.1030    2.0817 C.ar    1  UNL1        0.0147
      9 C          60.3558   93.5446    0.9287 C.ar    1  UNL1        0.0010
     10 C          61.8340   93.2902    0.9473 C.ar    1  UNL1       -0.0014
     11 C          62.4606   92.5941    2.1190 C.ar    1  UNL1        0.0010
     12 C          61.6089   92.1525    3.2721 C.ar    1  UNL1        0.0147
     13 C          62.6856   93.7319   -0.2059 C.2     1  UNL1        0.0158
     14 C          62.4423   93.1715   -1.5758 C.2     1  UNL1        0.0487
     15 C          63.2938   93.6131   -2.7289 C.2     1  UNL1        0.2355
     16 N          64.3888   94.6152   -2.5122 N.2     1  UNL1       -0.0325
     17 C          64.6322   95.1756   -1.1422 C.2     1  UNL1        0.3799
     18 N          65.6302   96.1700   -0.6274 N.2     1  UNL1       -0.0106
     19 C          65.3954   96.3429    0.8440 C.2     1  UNL1        0.3351
     20 N          64.2523   95.4553    1.2385 N.2     1  UNL1       -0.2103
     21 C          63.7806   94.7339    0.0109 C.3     1  UNL1        0.2404
     22 C          59.3830   89.3382    7.3796 C.ar    1  UNL1        0.0517
     23 C          59.2045   87.9021    6.9851 C.ar    1  UNL1        0.0147
     24 C          59.6822   86.8095    7.8950 C.ar    1  UNL1        0.0014
     25 C          60.3383   87.1529    9.1994 C.ar    1  UNL1        0.0046
     26 C          60.5169   88.5891    9.5939 C.ar    1  UNL1        0.0546
     27 C          60.0392   89.6818    8.6840 C.ar    1  UNL1        0.0192
     28 C          61.1730   88.9326   10.8983 C.2     1  UNL1        0.2458
     29 O          60.3393   89.1173   12.1315 O.2     1  UNL1       -0.2701
     30 N          62.6629   89.0914   10.9695 N.am    1  UNL1       -0.3025
     31 H          63.2101   88.9702   10.1601 H       1  UNL1        0.1497
     32 C          63.3191   89.4349   12.2739 C.3     1  UNL1        0.0719
     33 C          63.7627   88.4577   13.3220 C.3     1  UNL1        0.0196
     34 C          64.3646   89.2347   14.4551 C.3     1  UNL1        0.0017
     35 C          64.2930   90.6921   14.1073 C.3     1  UNL1        0.0017
     36 C          63.6468   90.8158   12.7593 C.3     1  UNL1        0.0196
@<TRIPOS>BOND
     1     1     2    2
     2     2     3   am
     3     3     7    1
     4     7     8   ar
     5     8     9   ar
     6     9    10   ar
     7    10    13    1
     8    13    14    2
     9    14    15    1
    10    15    16    2
    11    16    17    1
    12    17    18    2
    13    18    19    1
    14    19    20    2
    15    20    21    1
    16    10    11   ar
    17    11    12   ar
    18     2     4   am
    19     4    22    1
    20    22    23   ar
    21    23    24   ar
    22    24    25   ar
    23    25    26   ar
    24    26    28    1
    25    28    29    2
    26    28    30   am
    27    30    32    1
    28    32    33    1
    29    33    34    1
    30    34    35    1
    31    35    36    1
    32    26    27   ar
    33    12     7   ar
    34    27    22   ar
    35    21    13    1
    36    36    32    1
    37    21    17    1
    38     3     5    1
    39     4     6    1
    40    30    31    1
@<TRIPOS>MOLECULE
*****
 36 40 0 0 0
SMALL
GASTEIGER

@<TRIPOS>ATOM
      1 O          64.4347   88.8333   14.1123 O.2     1  UNL1       -0.2522
      2 C          64.1244   89.7189   15.2826 C.2     1  UNL1        0.3082
      3 N          64.4142   91.1888   15.2084 N.am    1  UNL1       -0.2681
      4 N          63.5244   89.1346   16.5269 N.am    1  UNL1       -0.2681
      5 H          64.2105   91.7700   15.9764 H       1  UNL1        0.1564
      6 H          63.3208   89.7159   17.2950 H       1  UNL1        0.1564
      7 C          65.0142   91.7731   13.9640 C.ar    1  UNL1        0.0516
      8 C          64.3026   91.6328   12.6509 C.ar    1  UNL1        0.0147
      9 C          64.9026   92.2170   11.4066 C.ar    1  UNL1        0.0010
     10 C          66.2143   92.9417   11.4752 C.ar    1  UNL1       -0.0014
     11 C          66.9258   93.0820   12.7882 C.ar    1  UNL1        0.0010
     12 C          66.3257   92.4976   14.0326 C.ar    1  UNL1        0.0147
     13 C          66.8143   93.5260   10.2307 C.2     1  UNL1        0.0158
     14 C          67.9550   92.8296    9.5498 C.2     1  UNL1        0.0487
     15 C          68.5550   93.4138    8.3054 C.2     1  UNL1        0.2355
     16 N          68.0143   94.6945    7.7419 N.2     1  UNL1       -0.0325
     17 C          66.8735   95.3909    8.4228 C.2     1  UNL1        0.3799
     18 N          66.1357   96.6570    8.1028 N.2     1  UNL1       -0.0106
     19 C          65.0797   96.8553    9.1494 C.2     1  UNL1        0.3351
     20 N          65.1648   95.7117   10.1163 N.2     1  UNL1       -0.2103
     21 C          66.2735   94.8066    9.6673 C.3     1  UNL1        0.2404
     22 C          63.2346   87.6647   16.6011 C.ar    1  UNL1        0.0517
     23 C          62.5625   87.0931   17.8142 C.ar    1  UNL1        0.0147
     24 C          62.2727   85.6233   17.8885 C.ar    1  UNL1        0.0014
     25 C          62.6550   84.7250   16.7497 C.ar    1  UNL1        0.0046
     26 C          63.3272   85.2965   15.5366 C.ar    1  UNL1        0.0546
     27 C          63.6170   86.7665   15.4623 C.ar    1  UNL1        0.0192
     28 C          63.7095   84.3983   14.3978 C.2     1  UNL1        0.2458
     29 O          65.0617   83.7494   14.3758 O.2     1  UNL1       -0.2701
     30 N          62.7397   84.1489   13.2810 N.am    1  UNL1       -0.3025
     31 H          61.8522   84.5748   13.2954 H       1  UNL1        0.1497
     32 C          63.1220   83.2506   12.1421 C.3     1  UNL1        0.0719
     33 C          62.6795   81.8299   11.9530 C.3     1  UNL1        0.0196
     34 C          63.2980   81.3165   10.6865 C.3     1  UNL1        0.0017
     35 C          64.1227   82.4200   10.0930 C.3     1  UNL1        0.0017
     36 C          64.0140   83.6153   10.9926 C.3     1  UNL1        0.0196
@<TRIPOS>BOND
     1     1     2    2
     2     2     3   am
     3     3     7    1
     4     7     8   ar
     5     8     9   ar
     6     9    10   ar
     7    10    13    1
     8    13    14    2
     9    14    15    1
    10    15    16    2
    11    16    17    1
    12    17    18    2
    13    18    19    1
    14    19    20    2
    15    20    21    1
    16    10    11   ar
    17    11    12   ar
    18     2     4   am
    19     4    22    1
    20    22    23   ar
    21    23    24   ar
    22    24    25   ar
    23    25    26   ar
    24    26    28    1
    25    28    29    2
    26    28    30   am
    27    30    32    1
    28    32    33    1
    29    33    34    1
    30    34    35    1
    31    35    36    1
    32    26    27   ar
    33    12     7   ar
    34    27    22   ar
    35    21    13    1
    36    36    32    1
    37    21    17    1
    38     3     5    1
    39     4     6    1
    40    30    31    1
@<TRIPOS>MOLECULE
*****
 36 40 0 0 0
SMALL
GASTEIGER

@<TRIPOS>ATOM
      1 O          64.2554   89.1060   14.1791 O.2     1  UNL1       -0.2522
      2 C          64.1419   89.8362   15.4844 C.2     1  UNL1        0.3082
      3 N          64.5100   91.2881   15.5661 N.am    1  UNL1       -0.2681
      4 N          63.6604   89.1146   16.7080 N.am    1  UNL1       -0.2681
      5 H          64.4355   91.7673   16.4228 H       1  UNL1        0.1564
      6 H          63.5859   89.5938   17.5648 H       1  UNL1        0.1564
      7 C          64.9915   92.0097   14.3425 C.ar    1  UNL1        0.0516
      8 C          64.4406   91.6504   12.9944 C.ar    1  UNL1        0.0147
      9 C          64.9221   92.3720   11.7708 C.ar    1  UNL1        0.0010
     10 C          65.9546   93.4531   11.8952 C.ar    1  UNL1       -0.0014
     11 C          66.5056   93.8124   13.2433 C.ar    1  UNL1        0.0010
     12 C          66.0240   93.0907   14.4669 C.ar    1  UNL1        0.0147
     13 C          66.4362   94.1747   10.6715 C.2     1  UNL1        0.0158
     14 C          65.9871   95.5808   10.4047 C.2     1  UNL1        0.0487
     15 C          66.4686   96.3025    9.1811 C.2     1  UNL1        0.2355
     16 N          67.3992   95.6180    8.2242 N.2     1  UNL1       -0.0325
     17 C          67.8483   94.2119    8.4910 C.2     1  UNL1        0.3799
     18 N          68.7546   93.2870    7.7340 N.2     1  UNL1       -0.0106
     19 C          68.8332   91.9938    8.4898 C.2     1  UNL1        0.3351
     20 N          67.9755   92.1193    9.7139 N.2     1  UNL1       -0.2103
     21 C          67.3667   93.4903    9.7147 C.3     1  UNL1        0.2404
     22 C          63.2923   87.6627   16.6263 C.ar    1  UNL1        0.0517
     23 C          62.4983   87.0271   17.7290 C.ar    1  UNL1        0.0147
     24 C          62.1302   85.5753   17.6474 C.ar    1  UNL1        0.0014
     25 C          62.5560   84.7590   16.4631 C.ar    1  UNL1        0.0046
     26 C          63.3500   85.3946   15.3605 C.ar    1  UNL1        0.0546
     27 C          63.7181   86.8465   15.4421 C.ar    1  UNL1        0.0192
     28 C          63.7758   84.5784   14.1763 C.2     1  UNL1        0.2458
     29 O          65.2309   84.3003   13.9412 O.2     1  UNL1       -0.2701
     30 N          62.7465   84.0401   13.2271 N.am    1  UNL1       -0.3025
     31 H          61.7914   84.2226   13.3815 H       1  UNL1        0.1497
     32 C          63.1722   83.2238   12.0429 C.3     1  UNL1        0.0719
     33 C          63.9710   83.7174   10.8731 C.3     1  UNL1        0.0196
     34 C          64.1665   82.5693    9.9278 C.3     1  UNL1        0.0017
     35 C          63.4885   81.3662   10.5133 C.3     1  UNL1        0.0017
     36 C          62.8740   81.7707   11.8205 C.3     1  UNL1        0.0196
@<TRIPOS>BOND
     1     1     2    2
     2     2     3   am
     3     3     7    1
     4     7     8   ar
     5     8     9   ar
     6     9    10   ar
     7    10    13    1
     8    13    14    2
     9    14    15    1
    10    15    16    2
    11    16    17    1
    12    17    18    2
    13    18    19    1
    14    19    20    2
    15    20    21    1
    16    10    11   ar
    17    11    12   ar
    18     2     4   am
    19     4    22    1
    20    22    23   ar
    21    23    24   ar
    22    24    25   ar
    23    25    26   ar
    24    26    28    1
    25    28    29    2
    26    28    30   am
    27    30    32    1
    28    32    33    1
    29    33    34    1
    30    34    35    1
    31    35    36    1
    32    26    27   ar
    33    12     7   ar
    34    27    22   ar
    35    21    13    1
    36    36    32    1
    37    21    17    1
    38     3     5    1
    39     4     6    1
    40    30    31    1
@<TRIPOS>MOLECULE
*****
 36 40 0 0 0
SMALL
GASTEIGER

@<TRIPOS>ATOM
      1 O          61.2980   90.5763    5.1944 O.2     1  UNL1       -0.2522
      2 C          59.8648   91.0186    5.1766 C.2     1  UNL1        0.3082
      3 N          59.4210   92.0851    4.2197 N.am    1  UNL1       -0.2681
      4 N          58.8755   90.3944    6.1154 N.am    1  UNL1       -0.2681
      5 H          58.4803   92.3755    4.2079 H       1  UNL1        0.1564
      6 H          57.9349   90.6847    6.1037 H       1  UNL1        0.1564
      7 C          60.4102   92.7093    3.2808 C.ar    1  UNL1        0.0516
      8 C          61.7192   92.0288    3.0093 C.ar    1  UNL1        0.0147
      9 C          62.7085   92.6529    2.0704 C.ar    1  UNL1        0.0010
     10 C          62.3889   93.9578    1.4029 C.ar    1  UNL1       -0.0014
     11 C          61.0801   94.6383    1.6743 C.ar    1  UNL1        0.0010
     12 C          60.0907   94.0140    2.6133 C.ar    1  UNL1        0.0147
     13 C          63.3783   94.5819    0.4640 C.2     1  UNL1        0.0158
     14 C          64.3610   95.5938    0.9741 C.2     1  UNL1        0.0487
     15 C          65.3504   96.2180    0.0352 C.2     1  UNL1        0.2355
     16 N          65.3570   95.8303   -1.4139 N.2     1  UNL1       -0.0325
     17 C          64.3743   94.8184   -1.9239 C.2     1  UNL1        0.3799
     18 N          64.1440   94.2428   -3.2898 N.2     1  UNL1       -0.0106
     19 C          63.0123   93.2628   -3.1950 C.2     1  UNL1        0.3351
     20 N          62.5432   93.2328   -1.7706 N.2     1  UNL1       -0.2103
     21 C          63.3849   94.1942   -0.9850 C.3     1  UNL1        0.2404
     22 C          59.3193   89.3278    7.0723 C.ar    1  UNL1        0.0517
     23 C          59.0898   87.8825    6.7433 C.ar    1  UNL1        0.0147
     24 C          59.5336   86.8159    7.7001 C.ar    1  UNL1        0.0014
     25 C          60.2069   87.1947    8.9859 C.ar    1  UNL1        0.0046
     26 C          60.4364   88.6402    9.3149 C.ar    1  UNL1        0.0546
     27 C          59.9926   89.7067    8.3580 C.ar    1  UNL1        0.0192
     28 C          61.1096   89.0190   10.6006 C.2     1  UNL1        0.2458
     29 O          60.3233   89.0521   11.8776 O.2     1  UNL1       -0.2701
     30 N          62.5693   89.3647   10.6095 N.am    1  UNL1       -0.3025
     31 H          63.0854   89.3430    9.7714 H       1  UNL1        0.1497
     32 C          63.2426   89.7435   11.8952 C.3     1  UNL1        0.0719
     33 C          63.6191   88.8050   13.0031 C.3     1  UNL1        0.0196
     34 C          64.2668   89.6088   14.0914 C.3     1  UNL1        0.0017
     35 C          64.2905   91.0440   13.6561 C.3     1  UNL1        0.0017
     36 C          63.6575   91.1273   12.2988 C.3     1  UNL1        0.0196
@<TRIPOS>BOND
     1     1     2    2
     2     2     3   am
     3     3     7    1
     4     7     8   ar
     5     8     9   ar
     6     9    10   ar
     7    10    13    1
     8    13    14    2
     9    14    15    1
    10    15    16    2
    11    16    17    1
    12    17    18    2
    13    18    19    1
    14    19    20    2
    15    20    21    1
    16    10    11   ar
    17    11    12   ar
    18     2     4   am
    19     4    22    1
    20    22    23   ar
    21    23    24   ar
    22    24    25   ar
    23    25    26   ar
    24    26    28    1
    25    28    29    2
    26    28    30   am
    27    30    32    1
    28    32    33    1
    29    33    34    1
    30    34    35    1
    31    35    36    1
    32    26    27   ar
    33    12     7   ar
    34    27    22   ar
    35    21    13    1
    36    36    32    1
    37    21    17    1
    38     3     5    1
    39     4     6    1
    40    30    31    1
@<TRIPOS>MOLECULE
*****
 36 40 0 0 0
SMALL
GASTEIGER

@<TRIPOS>ATOM
      1 O          65.0995   89.0651   14.3690 O.2     1  UNL1       -0.2522
      2 C          64.2432   89.4513   15.5384 C.2     1  UNL1        0.3082
      3 N          63.2721   88.4642   16.1152 N.am    1  UNL1       -0.2681
      4 N          64.3579   90.8244   16.1309 N.am    1  UNL1       -0.2681
      5 H          62.7100   88.7176   16.8828 H       1  UNL1        0.1564
      6 H          63.7959   91.0778   16.8985 H       1  UNL1        0.1564
      7 C          63.1573   87.0910   15.5227 C.ar    1  UNL1        0.0516
      8 C          62.5801   85.9696   16.3347 C.ar    1  UNL1        0.0147
      9 C          62.4653   84.5964   15.7421 C.ar    1  UNL1        0.0010
     10 C          62.9277   84.3446   14.3375 C.ar    1  UNL1       -0.0014
     11 C          63.5049   85.4660   13.5255 C.ar    1  UNL1        0.0010
     12 C          63.6197   86.8392   14.1182 C.ar    1  UNL1        0.0147
     13 C          62.8130   82.9714   13.7449 C.2     1  UNL1        0.0158
     14 C          62.2542   81.8456   14.5637 C.2     1  UNL1        0.0487
     15 C          62.1394   80.4724   13.9712 C.2     1  UNL1        0.2355
     16 N          62.5834   80.2250   12.5598 N.2     1  UNL1       -0.0325
     17 C          63.1421   81.3508   11.7411 C.2     1  UNL1        0.3799
     18 N          63.6572   81.4087   10.3335 N.2     1  UNL1       -0.0106
     19 C          64.0903   82.8178   10.0561 C.2     1  UNL1        0.3351
     20 N          63.8429   83.6307   11.2923 N.2     1  UNL1       -0.2103
     21 C          63.2569   82.7240   12.3337 C.3     1  UNL1        0.2404
     22 C          65.3291   91.8115   15.5541 C.ar    1  UNL1        0.0517
     23 C          66.4238   92.3748   16.4109 C.ar    1  UNL1        0.0147
     24 C          67.3949   93.3619   15.8341 C.ar    1  UNL1        0.0014
     25 C          67.2712   93.7856   14.4005 C.ar    1  UNL1        0.0046
     26 C          66.1765   93.2222   13.5437 C.ar    1  UNL1        0.0546
     27 C          65.2053   92.2351   14.1205 C.ar    1  UNL1        0.0192
     28 C          66.0528   93.6458   12.1101 C.2     1  UNL1        0.2458
     29 O          65.2453   92.8218   11.1515 O.2     1  UNL1       -0.2701
     30 N          66.7367   94.8936   11.6351 N.am    1  UNL1       -0.3025
     31 H          67.2667   95.4344   12.2643 H       1  UNL1        0.1497
     32 C          66.6130   95.3173   10.2015 C.3     1  UNL1        0.0719
     33 C          65.7758   96.4501    9.6860 C.3     1  UNL1        0.0196
     34 C          65.9502   96.5155    8.1976 C.3     1  UNL1        0.0017
     35 C          66.8953   95.4231    7.7933 C.3     1  UNL1        0.0017
     36 C          67.3050   94.6825    9.0317 C.3     1  UNL1        0.0196
@<TRIPOS>BOND
     1     1     2    2
     2     2     3   am
     3     3     7    1
     4     7     8   ar
     5     8     9   ar
     6     9    10   ar
     7    10    13    1
     8    13    14    2
     9    14    15    1
    10    15    16    2
    11    16    17    1
    12    17    18    2
    13    18    19    1
    14    19    20    2
    15    20    21    1
    16    10    11   ar
    17    11    12   ar
    18     2     4   am
    19     4    22    1
    20    22    23   ar
    21    23    24   ar
    22    24    25   ar
    23    25    26   ar
    24    26    28    1
    25    28    29    2
    26    28    30   am
    27    30    32    1
    28    32    33    1
    29    33    34    1
    30    34    35    1
    31    35    36    1
    32    26    27   ar
    33    12     7   ar
    34    27    22   ar
    35    21    13    1
    36    36    32    1
    37    21    17    1
    38     3     5    1
    39     4     6    1
    40    30    31    1
@<TRIPOS>MOLECULE
*****
 36 40 0 0 0
SMALL
GASTEIGER

@<TRIPOS>ATOM
      1 O          65.6707   89.6046   13.9351 O.2     1  UNL1       -0.2522
      2 C          64.6597   89.8651   15.0121 C.2     1  UNL1        0.3082
      3 N          63.6194   88.8322   15.3299 N.am    1  UNL1       -0.2681
      4 N          64.6888   91.1585   15.7711 N.am    1  UNL1       -0.2681
      5 H          62.9558   89.0032   16.0367 H       1  UNL1        0.1564
      6 H          64.0252   91.3294   16.4780 H       1  UNL1        0.1564
      7 C          63.5902   87.5389   14.5708 C.ar    1  UNL1        0.0516
      8 C          63.1523   87.5208   13.1362 C.ar    1  UNL1        0.0147
      9 C          63.1231   86.2275   12.3771 C.ar    1  UNL1        0.0010
     10 C          63.5319   84.9520   13.0526 C.ar    1  UNL1       -0.0014
     11 C          63.9698   84.9700   14.4871 C.ar    1  UNL1        0.0010
     12 C          63.9990   86.2634   15.2462 C.ar    1  UNL1        0.0147
     13 C          63.5027   83.6586   12.2934 C.2     1  UNL1        0.0158
     14 C          64.1415   83.5692   10.9392 C.2     1  UNL1        0.0487
     15 C          64.1123   82.2759   10.1801 C.2     1  UNL1        0.2355
     16 N          63.4443   81.0718   10.7751 N.2     1  UNL1       -0.0325
     17 C          62.8055   81.1612   12.1293 C.2     1  UNL1        0.3799
     18 N          62.0789   80.1494   12.9651 N.2     1  UNL1       -0.0106
     19 C          61.6591   80.8176   14.2407 C.2     1  UNL1        0.3351
     20 N          62.1261   82.2422   14.1934 N.2     1  UNL1       -0.2103
     21 C          62.8347   82.4546   12.8885 C.3     1  UNL1        0.2404
     22 C          65.7291   92.1914   15.4533 C.ar    1  UNL1        0.0517
     23 C          66.8837   92.4049   16.3868 C.ar    1  UNL1        0.0147
     24 C          67.9240   93.4378   16.0690 C.ar    1  UNL1        0.0014
     25 C          67.8097   94.2572   14.8178 C.ar    1  UNL1        0.0046
     26 C          66.6550   94.0437   13.8843 C.ar    1  UNL1        0.0546
     27 C          65.6147   93.0107   14.2022 C.ar    1  UNL1        0.0192
     28 C          66.5407   94.8631   12.6332 C.2     1  UNL1        0.2458
     29 O          66.1079   96.2971   12.7127 O.2     1  UNL1       -0.2701
     30 N          66.8591   94.2485   11.3024 N.am    1  UNL1       -0.3025
     31 H          67.1432   93.3073   11.2502 H       1  UNL1        0.1497
     32 C          66.7448   95.0679   10.0512 C.3     1  UNL1        0.0719
     33 C          65.6778   96.0795    9.7542 C.3     1  UNL1        0.0196
     34 C          65.9509   96.6563    8.3968 C.3     1  UNL1        0.0017
     35 C          67.1867   96.0012    7.8549 C.3     1  UNL1        0.0017
     36 C          67.6774   95.0195    8.8773 C.3     1  UNL1        0.0196
@<TRIPOS>BOND
     1     1     2    2
     2     2     3   am
     3     3     7    1
     4     7     8   ar
     5     8     9   ar
     6     9    10   ar
     7    10    13    1
     8    13    14    2
     9    14    15    1
    10    15    16    2
    11    16    17    1
    12    17    18    2
    13    18    19    1
    14    19    20    2
    15    20    21    1
    16    10    11   ar
    17    11    12   ar
    18     2     4   am
    19     4    22    1
    20    22    23   ar
    21    23    24   ar
    22    24    25   ar
    23    25    26   ar
    24    26    28    1
    25    28    29    2
    26    28    30   am
    27    30    32    1
    28    32    33    1
    29    33    34    1
    30    34    35    1
    31    35    36    1
    32    26    27   ar
    33    12     7   ar
    34    27    22   ar
    35    21    13    1
    36    36    32    1
    37    21    17    1
    38     3     5    1
    39     4     6    1
    40    30    31    1
@<TRIPOS>MOLECULE
*****
 36 40 0 0 0
SMALL
GASTEIGER

@<TRIPOS>ATOM
      1 O          64.6452   90.8828   12.6457 O.2     1  UNL1       -0.2522
      2 C          64.6225   90.1003   13.9252 C.2     1  UNL1        0.3082
      3 N          63.8414   88.8224   14.0090 N.am    1  UNL1       -0.2681
      4 N          65.3808   90.5956   15.1208 N.am    1  UNL1       -0.2681
      5 H          63.8265   88.3088   14.8488 H       1  UNL1        0.1564
      6 H          65.3659   90.0820   15.9605 H       1  UNL1        0.1564
      7 C          63.0831   88.3271   12.8134 C.ar    1  UNL1        0.0516
      8 C          63.0947   86.8670   12.4700 C.ar    1  UNL1        0.0147
      9 C          62.3364   86.3717   11.2744 C.ar    1  UNL1        0.0010
     10 C          61.5664   87.3365   10.4221 C.ar    1  UNL1       -0.0014
     11 C          61.5547   88.7966   10.7655 C.ar    1  UNL1        0.0010
     12 C          62.3131   89.2919   11.9612 C.ar    1  UNL1        0.0147
     13 C          60.8080   86.8412    9.2264 C.2     1  UNL1        0.0158
     14 C          59.3853   87.2654    9.0121 C.2     1  UNL1        0.0487
     15 C          58.6270   86.7701    7.8165 C.2     1  UNL1        0.2355
     16 N          59.2913   85.8505    6.8352 N.2     1  UNL1       -0.0325
     17 C          60.7140   85.4262    7.0495 C.2     1  UNL1        0.3799
     18 N          61.6256   84.5352    6.2589 N.2     1  UNL1       -0.0106
     19 C          62.9473   84.4799    6.9659 C.2     1  UNL1        0.3351
     20 N          62.8527   85.3367    8.1935 N.2     1  UNL1       -0.2103
     21 C          61.4723   85.9216    8.2452 C.3     1  UNL1        0.2404
     22 C          66.1619   91.8735   15.0369 C.ar    1  UNL1        0.0517
     23 C          67.1224   92.2384   16.1298 C.ar    1  UNL1        0.0147
     24 C          67.9035   93.5162   16.0461 C.ar    1  UNL1        0.0014
     25 C          67.7242   94.4291   14.8694 C.ar    1  UNL1        0.0046
     26 C          66.7637   94.0642   13.7765 C.ar    1  UNL1        0.0546
     27 C          65.9825   92.7863   13.8603 C.ar    1  UNL1        0.0192
     28 C          66.5843   94.9770   12.5999 C.2     1  UNL1        0.2458
     29 O          66.2032   96.4118   12.8150 O.2     1  UNL1       -0.2701
     30 N          66.7861   94.4552   11.2081 N.am    1  UNL1       -0.3025
     31 H          67.0362   93.5136   11.0669 H       1  UNL1        0.1497
     32 C          66.6067   95.3681   10.0315 C.3     1  UNL1        0.0719
     33 C          65.3280   96.0361    9.6207 C.3     1  UNL1        0.0196
     34 C          65.6056   96.8541    8.3944 C.3     1  UNL1        0.0017
     35 C          67.0558   96.6917    8.0473 C.3     1  UNL1        0.0017
     36 C          67.6746   95.7733    9.0591 C.3     1  UNL1        0.0196
@<TRIPOS>BOND
     1     1     2    2
     2     2     3   am
     3     3     7    1
     4     7     8   ar
     5     8     9   ar
     6     9    10   ar
     7    10    13    1
     8    13    14    2
     9    14    15    1
    10    15    16    2
    11    16    17    1
    12    17    18    2
    13    18    19    1
    14    19    20    2
    15    20    21    1
    16    10    11   ar
    17    11    12   ar
    18     2     4   am
    19     4    22    1
    20    22    23   ar
    21    23    24   ar
    22    24    25   ar
    23    25    26   ar
    24    26    28    1
    25    28    29    2
    26    28    30   am
    27    30    32    1
    28    32    33    1
    29    33    34    1
    30    34    35    1
    31    35    36    1
    32    26    27   ar
    33    12     7   ar
    34    27    22   ar
    35    21    13    1
    36    36    32    1
    37    21    17    1
    38     3     5    1
    39     4     6    1
    40    30    31    1
