@<TRIPOS>MOLECULE
*****
 24 26 0 0 0
SMALL
GASTEIGER

@<TRIPOS>ATOM
      1 C          63.4430   85.7879   13.3783 C.ar    1  UNL1        0.1017
      2 C          64.2625   85.9777   14.6203 C.ar    1  UNL1        0.1179
      3 N          64.6187   84.7952   15.4717 N.ar    1  UNL1       -0.2410
      4 C          64.1554   83.4231   15.0813 C.ar    1  UNL1        0.0972
      5 C          63.3359   83.2334   13.8393 C.ar    1  UNL1        0.0304
      6 C          62.9797   84.4158   12.9879 C.ar    1  UNL1        0.0205
      7 C          63.0763   90.7242   11.5399 C.3     1  UNL1        0.0540
      8 C          62.9183   89.2393   11.6818 C.ar    1  UNL1        0.0807
      9 N          63.4916   88.3925   12.7792 N.ar    1  UNL1       -0.1694
     10 N          63.0868   86.9704   12.5268 N.ar    1  UNL1       -0.2285
     11 C          62.2634   86.9382   11.2734 C.ar    1  UNL1        0.0840
     12 C          61.5950   85.8133   10.5402 C.ar    1  UNL1        0.0192
     13 C          60.8224   86.0906    9.2848 C.ar    1  UNL1        0.0015
     14 C          60.7182   87.4929    8.7626 C.ar    1  UNL1        0.0001
     15 C          61.3866   88.6179    9.4958 C.ar    1  UNL1        0.0027
     16 C          62.1592   88.3405   10.7512 C.ar    1  UNL1        0.0329
     17 C          62.8725   81.8612   13.4489 C.3     1  UNL1        0.1960
     18 C          62.4092   80.4890   13.0584 C.3     1  UNL1        0.0428
     19 O          62.2446   81.6887   14.8001 O.3     1  UNL1       -0.3751
     20 H          62.3917   82.4881   15.3295 H       1  UNL1        0.2110
     21 C          63.5004   82.0337   12.0976 C.3     1  UNL1        0.4231
     22 F          64.1284   82.2062   10.7463 F       1  UNL1       -0.1673
     23 F          62.1387   82.0716   11.4697 F       1  UNL1       -0.1673
     24 F          64.9736   82.0387   12.3799 F       1  UNL1       -0.1673
@<TRIPOS>BOND
     1     7     8    1
     2     8     9   ar
     3     9    10   ar
     4    10     1    1
     5     1     2   ar
     6     2     3   ar
     7     3     4   ar
     8     4     5   ar
     9     5    17    1
    10    17    18    1
    11    17    19    1
    12    17    21    1
    13    21    22    1
    14    21    23    1
    15    21    24    1
    16     5     6   ar
    17    10    11   ar
    18    11    12   ar
    19    12    13   ar
    20    13    14   ar
    21    14    15   ar
    22    15    16   ar
    23    16     8   ar
    24     6     1   ar
    25    16    11   ar
    26    19    20    1
@<TRIPOS>MOLECULE
*****
 24 26 0 0 0
SMALL
GASTEIGER

@<TRIPOS>ATOM
      1 C          64.0480   88.7113   15.0024 C.ar    1  UNL1        0.1017
      2 C          63.3209   88.9033   16.3004 C.ar    1  UNL1        0.1179
      3 N          62.9342   87.7127   17.1267 N.ar    1  UNL1       -0.2410
      4 C          63.2744   86.3300   16.6551 C.ar    1  UNL1        0.0972
      5 C          64.0014   86.1380   15.3571 C.ar    1  UNL1        0.0304
      6 C          64.3882   87.3287   14.5309 C.ar    1  UNL1        0.0205
      7 C          66.3329   93.2043   13.4299 C.3     1  UNL1        0.0540
      8 C          65.4850   91.9672   13.4533 C.ar    1  UNL1        0.0807
      9 N          65.3985   90.9788   14.5783 N.ar    1  UNL1       -0.1694
     10 N          64.4347   89.9020   14.1762 N.ar    1  UNL1       -0.2285
     11 C          63.9256   90.2249   12.8026 C.ar    1  UNL1        0.0840
     12 C          62.9548   89.5216   11.9011 C.ar    1  UNL1        0.0192
     13 C          62.6331   90.0947   10.5527 C.ar    1  UNL1        0.0015
     14 C          63.2822   91.3711   10.1060 C.ar    1  UNL1        0.0001
     15 C          64.2530   92.0744   11.0076 C.ar    1  UNL1        0.0027
     16 C          64.5747   91.5013   12.3559 C.ar    1  UNL1        0.0329
     17 C          64.3416   84.7554   14.8855 C.3     1  UNL1        0.1960
     18 C          64.6819   83.3727   14.4139 C.3     1  UNL1        0.0428
     19 O          65.8020   85.0908   14.9557 O.3     1  UNL1       -0.3751
     20 H          65.9093   86.0061   15.2584 H       1  UNL1        0.2110
     21 C          62.8813   84.4199   14.8153 C.3     1  UNL1        0.4231
     22 F          61.4210   84.0845   14.7451 F       1  UNL1       -0.1673
     23 F          62.7975   85.0675   13.4649 F       1  UNL1       -0.1673
     24 F          62.6093   83.7104   16.1086 F       1  UNL1       -0.1673
@<TRIPOS>BOND
     1     7     8    1
     2     8     9   ar
     3     9    10   ar
     4    10     1    1
     5     1     2   ar
     6     2     3   ar
     7     3     4   ar
     8     4     5   ar
     9     5    17    1
    10    17    18    1
    11    17    19    1
    12    17    21    1
    13    21    22    1
    14    21    23    1
    15    21    24    1
    16     5     6   ar
    17    10    11   ar
    18    11    12   ar
    19    12    13   ar
    20    13    14   ar
    21    14    15   ar
    22    15    16   ar
    23    16     8   ar
    24     6     1   ar
    25    16    11   ar
    26    19    20    1
@<TRIPOS>MOLECULE
*****
 24 26 0 0 0
SMALL
GASTEIGER

@<TRIPOS>ATOM
      1 C          63.0108   85.6437   12.6943 C.ar    1  UNL1        0.1017
      2 C          63.8855   86.1804   13.7884 C.ar    1  UNL1        0.1179
      3 N          64.4418   85.2524   14.8273 N.ar    1  UNL1       -0.2410
      4 C          64.1234   83.7876   14.7721 C.ar    1  UNL1        0.0972
      5 C          63.2488   83.2509   13.6781 C.ar    1  UNL1        0.0304
      6 C          62.6925   84.1789   12.6392 C.ar    1  UNL1        0.0205
      7 C          60.4240   87.4893    8.4773 C.3     1  UNL1        0.0540
      8 C          61.2655   87.4201    9.7171 C.ar    1  UNL1        0.0807
      9 N          61.5887   86.1790   10.4952 N.ar    1  UNL1       -0.1694
     10 N          62.4546   86.5717   11.6554 N.ar    1  UNL1       -0.2285
     11 C          62.6665   88.0554   11.5944 C.ar    1  UNL1        0.0840
     12 C          63.4337   88.9968   12.4748 C.ar    1  UNL1        0.0192
     13 C          63.4661   90.4624   12.1574 C.ar    1  UNL1        0.0015
     14 C          62.7312   90.9867   10.9594 C.ar    1  UNL1        0.0001
     15 C          61.9640   90.0454   10.0789 C.ar    1  UNL1        0.0027
     16 C          61.9317   88.5797   10.3964 C.ar    1  UNL1        0.0329
     17 C          62.9304   81.7861   13.6229 C.3     1  UNL1        0.1960
     18 C          62.6120   80.3213   13.5678 C.3     1  UNL1        0.0428
     19 O          62.4617   81.8343   15.0470 O.3     1  UNL1       -0.3751
     20 H          62.5548   82.7378   15.3876 H       1  UNL1        0.2110
     21 C          63.3991   81.7379   12.1988 C.3     1  UNL1        0.4231
     22 F          63.8677   81.6896   10.7748 F       1  UNL1       -0.1673
     23 F          61.9936   81.4757   11.7452 F       1  UNL1       -0.1673
     24 F          64.8762   81.9806   12.2944 F       1  UNL1       -0.1673
@<TRIPOS>BOND
     1     7     8    1
     2     8     9   ar
     3     9    10   ar
     4    10     1    1
     5     1     2   ar
     6     2     3   ar
     7     3     4   ar
     8     4     5   ar
     9     5    17    1
    10    17    18    1
    11    17    19    1
    12    17    21    1
    13    21    22    1
    14    21    23    1
    15    21    24    1
    16     5     6   ar
    17    10    11   ar
    18    11    12   ar
    19    12    13   ar
    20    13    14   ar
    21    14    15   ar
    22    15    16   ar
    23    16     8   ar
    24     6     1   ar
    25    16    11   ar
    26    19    20    1
@<TRIPOS>MOLECULE
*****
 24 26 0 0 0
SMALL
GASTEIGER

@<TRIPOS>ATOM
      1 C          63.4307   85.7372   13.4479 C.ar    1  UNL1        0.1017
      2 C          64.2472   85.9209   14.6928 C.ar    1  UNL1        0.1179
      3 N          64.6002   84.7345   15.5401 N.ar    1  UNL1       -0.2410
      4 C          64.1368   83.3645   15.1425 C.ar    1  UNL1        0.0972
      5 C          63.3203   83.1808   13.8977 C.ar    1  UNL1        0.0304
      6 C          62.9673   84.3672   13.0504 C.ar    1  UNL1        0.0205
      7 C          61.4292   88.7359    9.5901 C.3     1  UNL1        0.0540
      8 C          62.1577   88.3019   10.8274 C.ar    1  UNL1        0.0807
      9 N          62.2605   86.8971   11.3430 N.ar    1  UNL1       -0.1694
     10 N          63.0777   86.9236   12.6006 N.ar    1  UNL1       -0.2285
     11 C          63.4800   88.3448   12.8622 C.ar    1  UNL1        0.0840
     12 C          64.2905   88.9733   13.9567 C.ar    1  UNL1        0.0192
     13 C          64.5324   90.4536   13.9553 C.ar    1  UNL1        0.0015
     14 C          63.9639   91.3055   12.8594 C.ar    1  UNL1        0.0001
     15 C          63.1533   90.6770   11.7649 C.ar    1  UNL1        0.0027
     16 C          62.9114   89.1967   11.7663 C.ar    1  UNL1        0.0329
     17 C          62.8568   81.8107   13.5002 C.3     1  UNL1        0.1960
     18 C          62.3933   80.4406   13.1026 C.3     1  UNL1        0.0428
     19 O          62.2030   81.6432   14.8398 O.3     1  UNL1       -0.3751
     20 H          62.3447   82.4424   15.3709 H       1  UNL1        0.2110
     21 C          63.5106   81.9782   12.1606 C.3     1  UNL1        0.4231
     22 F          64.1644   82.1458   10.8210 F       1  UNL1       -0.1673
     23 F          62.1626   81.9782   11.5027 F       1  UNL1       -0.1673
     24 F          64.9767   82.0188   12.4748 F       1  UNL1       -0.1673
@<TRIPOS>BOND
     1     7     8    1
     2     8     9   ar
     3     9    10   ar
     4    10     1    1
     5     1     2   ar
     6     2     3   ar
     7     3     4   ar
     8     4     5   ar
     9     5    17    1
    10    17    18    1
    11    17    19    1
    12    17    21    1
    13    21    22    1
    14    21    23    1
    15    21    24    1
    16     5     6   ar
    17    10    11   ar
    18    11    12   ar
    19    12    13   ar
    20    13    14   ar
    21    14    15   ar
    22    15    16   ar
    23    16     8   ar
    24     6     1   ar
    25    16    11   ar
    26    19    20    1
@<TRIPOS>MOLECULE
*****
 24 26 0 0 0
SMALL
GASTEIGER

@<TRIPOS>ATOM
      1 C          62.6386   85.3432   10.5225 C.ar    1  UNL1        0.1017
      2 C          63.4029   84.5784    9.4827 C.ar    1  UNL1        0.1179
      3 N          63.9041   83.1973    9.7850 N.ar    1  UNL1       -0.2410
      4 C          63.6410   82.5809   11.1269 C.ar    1  UNL1        0.0972
      5 C          62.8768   83.3457   12.1667 C.ar    1  UNL1        0.0304
      6 C          62.3756   84.7268   11.8644 C.ar    1  UNL1        0.0205
      7 C          61.9927   90.5829   10.6140 C.3     1  UNL1        0.0540
      8 C          61.8405   89.1327   10.2623 C.ar    1  UNL1        0.0807
      9 N          62.6104   87.9942   10.8633 N.ar    1  UNL1       -0.1694
     10 N          62.1374   86.7243   10.2203 N.ar    1  UNL1       -0.2285
     11 C          61.0752   87.0778    9.2219 C.ar    1  UNL1        0.0840
     12 C          60.2513   86.2367    8.2925 C.ar    1  UNL1        0.0192
     13 C          59.2440   86.8841    7.3892 C.ar    1  UNL1        0.0015
     14 C          59.0605   88.3726    7.4152 C.ar    1  UNL1        0.0001
     15 C          59.8844   89.2137    8.3445 C.ar    1  UNL1        0.0027
     16 C          60.8917   88.5664    9.2479 C.ar    1  UNL1        0.0329
     17 C          62.6138   82.7293   13.5086 C.3     1  UNL1        0.1960
     18 C          62.3507   82.1130   14.8506 C.3     1  UNL1        0.0428
     19 O          61.9862   81.5421   12.8404 O.3     1  UNL1       -0.3751
     20 H          62.0113   81.6619   11.8781 H       1  UNL1        0.2110
     21 C          63.2413   83.9166   14.1769 C.3     1  UNL1        0.4231
     22 F          63.8689   85.1038   14.8452 F       1  UNL1       -0.1673
     23 F          61.9217   84.2632   14.8002 F       1  UNL1       -0.1673
     24 F          64.6735   83.8675   13.7339 F       1  UNL1       -0.1673
@<TRIPOS>BOND
     1     7     8    1
     2     8     9   ar
     3     9    10   ar
     4    10     1    1
     5     1     2   ar
     6     2     3   ar
     7     3     4   ar
     8     4     5   ar
     9     5    17    1
    10    17    18    1
    11    17    19    1
    12    17    21    1
    13    21    22    1
    14    21    23    1
    15    21    24    1
    16     5     6   ar
    17    10    11   ar
    18    11    12   ar
    19    12    13   ar
    20    13    14   ar
    21    14    15   ar
    22    15    16   ar
    23    16     8   ar
    24     6     1   ar
    25    16    11   ar
    26    19    20    1
@<TRIPOS>MOLECULE
*****
 24 26 0 0 0
SMALL
GASTEIGER

@<TRIPOS>ATOM
      1 C          64.3007   90.2169   14.5652 C.ar    1  UNL1        0.1017
      2 C          63.4220   90.7366   15.6644 C.ar    1  UNL1        0.1179
      3 N          63.9241   91.8128   16.5806 N.ar    1  UNL1       -0.2410
      4 C          65.3050   92.3694   16.3978 C.ar    1  UNL1        0.0972
      5 C          66.1837   91.8498   15.2988 C.ar    1  UNL1        0.0304
      6 C          65.6815   90.7735   14.3825 C.ar    1  UNL1        0.0205
      7 C          63.1195   85.4784   12.5573 C.3     1  UNL1        0.0540
      8 C          63.2556   86.9627   12.7260 C.ar    1  UNL1        0.0807
      9 N          63.8753   87.6636   13.8985 N.ar    1  UNL1       -0.1694
     10 N          63.7985   89.1407   13.6490 N.ar    1  UNL1       -0.2285
     11 C          63.1313   89.3527   12.3223 C.ar    1  UNL1        0.0840
     12 C          62.7860   90.5975   11.5600 C.ar    1  UNL1        0.0192
     13 C          62.1052   90.4962   10.2273 C.ar    1  UNL1        0.0015
     14 C          61.7697   89.1501    9.6569 C.ar    1  UNL1        0.0001
     15 C          62.1150   87.9053   10.4192 C.ar    1  UNL1        0.0027
     16 C          62.7958   88.0066   11.7519 C.ar    1  UNL1        0.0329
     17 C          67.5645   92.4064   15.1160 C.3     1  UNL1        0.1960
     18 C          68.9454   92.9630   14.9332 C.3     1  UNL1        0.0428
     19 O          67.8592   92.1510   16.5644 O.3     1  UNL1       -0.3751
     20 H          67.0808   91.7566   16.9881 H       1  UNL1        0.2110
     21 C          67.2698   92.6617   13.6676 C.3     1  UNL1        0.4231
     22 F          66.9752   92.9171   12.2192 F       1  UNL1       -0.1673
     23 F          68.2450   91.5899   13.2802 F       1  UNL1       -0.1673
     24 F          66.2523   93.7636   13.6930 F       1  UNL1       -0.1673
@<TRIPOS>BOND
     1     7     8    1
     2     8     9   ar
     3     9    10   ar
     4    10     1    1
     5     1     2   ar
     6     2     3   ar
     7     3     4   ar
     8     4     5   ar
     9     5    17    1
    10    17    18    1
    11    17    19    1
    12    17    21    1
    13    21    22    1
    14    21    23    1
    15    21    24    1
    16     5     6   ar
    17    10    11   ar
    18    11    12   ar
    19    12    13   ar
    20    13    14   ar
    21    14    15   ar
    22    15    16   ar
    23    16     8   ar
    24     6     1   ar
    25    16    11   ar
    26    19    20    1
@<TRIPOS>MOLECULE
*****
 24 26 0 0 0
SMALL
GASTEIGER

@<TRIPOS>ATOM
      1 C          62.7359   84.9601   10.4693 C.ar    1  UNL1        0.1017
      2 C          63.4884   84.0829    9.5130 C.ar    1  UNL1        0.1179
      3 N          64.3853   83.0000   10.0356 N.ar    1  UNL1       -0.2410
      4 C          64.5297   82.7943   11.5144 C.ar    1  UNL1        0.0972
      5 C          63.7772   83.6715   12.4706 C.ar    1  UNL1        0.0304
      6 C          62.8804   84.7544   11.9480 C.ar    1  UNL1        0.0205
      7 C          59.0480   87.5210    7.6905 C.3     1  UNL1        0.0540
      8 C          60.1439   87.2200    8.6695 C.ar    1  UNL1        0.0807
      9 N          60.8022   85.8878    8.8740 N.ar    1  UNL1       -0.1694
     10 N          61.8390   86.0429    9.9467 N.ar    1  UNL1       -0.2285
     11 C          61.8216   87.4711   10.4052 C.ar    1  UNL1        0.0840
     12 C          62.6244   88.2030   11.4395 C.ar    1  UNL1        0.0192
     13 C          62.3795   89.6624   11.6844 C.ar    1  UNL1        0.0015
     14 C          61.3318   90.3899   10.8950 C.ar    1  UNL1        0.0001
     15 C          60.5291   89.6580    9.8607 C.ar    1  UNL1        0.0027
     16 C          60.7740   88.1986    9.6158 C.ar    1  UNL1        0.0329
     17 C          63.9217   83.4659   13.9494 C.3     1  UNL1        0.1960
     18 C          64.0661   83.2602   15.4282 C.3     1  UNL1        0.0428
     19 O          65.2221   84.2130   13.9263 O.3     1  UNL1       -0.3751
     20 H          65.4144   84.4995   13.0197 H       1  UNL1        0.2110
     21 C          62.6212   82.7187   13.9725 C.3     1  UNL1        0.4231
     22 F          61.3208   81.9715   13.9956 F       1  UNL1       -0.1673
     23 F          61.9797   83.8579   14.7078 F       1  UNL1       -0.1673
     24 F          62.9289   81.4325   13.2646 F       1  UNL1       -0.1673
@<TRIPOS>BOND
     1     7     8    1
     2     8     9   ar
     3     9    10   ar
     4    10     1    1
     5     1     2   ar
     6     2     3   ar
     7     3     4   ar
     8     4     5   ar
     9     5    17    1
    10    17    18    1
    11    17    19    1
    12    17    21    1
    13    21    22    1
    14    21    23    1
    15    21    24    1
    16     5     6   ar
    17    10    11   ar
    18    11    12   ar
    19    12    13   ar
    20    13    14   ar
    21    14    15   ar
    22    15    16   ar
    23    16     8   ar
    24     6     1   ar
    25    16    11   ar
    26    19    20    1
@<TRIPOS>MOLECULE
*****
 24 26 0 0 0
SMALL
GASTEIGER

@<TRIPOS>ATOM
      1 C          63.2439   85.6244   12.6963 C.ar    1  UNL1        0.1017
      2 C          63.9080   85.6610   14.0410 C.ar    1  UNL1        0.1179
      3 N          64.3228   84.3829   14.7076 N.ar    1  UNL1       -0.2410
      4 C          64.0737   83.0682   14.0296 C.ar    1  UNL1        0.0972
      5 C          63.4097   83.0317   12.6851 C.ar    1  UNL1        0.0304
      6 C          62.9948   84.3098   12.0185 C.ar    1  UNL1        0.0205
      7 C          62.7478   90.7514   11.5350 C.3     1  UNL1        0.0540
      8 C          62.6010   89.2591   11.4960 C.ar    1  UNL1        0.0807
      9 N          63.2493   88.2845   12.4341 N.ar    1  UNL1       -0.1694
     10 N          62.8291   86.9025   12.0297 N.ar    1  UNL1       -0.2285
     11 C          61.9212   87.0229   10.8418 C.ar    1  UNL1        0.0840
     12 C          61.2046   85.9946   10.0179 C.ar    1  UNL1        0.0192
     13 C          60.3471   86.4226    8.8640 C.ar    1  UNL1        0.0015
     14 C          60.2062   87.8791    8.5341 C.ar    1  UNL1        0.0001
     15 C          60.9227   88.9075    9.3581 C.ar    1  UNL1        0.0027
     16 C          61.7802   88.4794   10.5119 C.ar    1  UNL1        0.0329
     17 C          63.1605   81.7170   12.0072 C.3     1  UNL1        0.1960
     18 C          62.9114   80.4023   11.3293 C.3     1  UNL1        0.0428
     19 O          63.7345   82.2647   10.7342 O.3     1  UNL1       -0.3751
     20 H          64.0102   83.1842   10.8731 H       1  UNL1        0.2110
     21 C          62.5865   81.1694   13.2802 C.3     1  UNL1        0.4231
     22 F          62.0125   80.6217   14.5533 F       1  UNL1       -0.1673
     23 F          63.8637   80.4254   13.5361 F       1  UNL1       -0.1673
     24 F          61.2084   81.7586   13.3400 F       1  UNL1       -0.1673
@<TRIPOS>BOND
     1     7     8    1
     2     8     9   ar
     3     9    10   ar
     4    10     1    1
     5     1     2   ar
     6     2     3   ar
     7     3     4   ar
     8     4     5   ar
     9     5    17    1
    10    17    18    1
    11    17    19    1
    12    17    21    1
    13    21    22    1
    14    21    23    1
    15    21    24    1
    16     5     6   ar
    17    10    11   ar
    18    11    12   ar
    19    12    13   ar
    20    13    14   ar
    21    14    15   ar
    22    15    16   ar
    23    16     8   ar
    24     6     1   ar
    25    16    11   ar
    26    19    20    1
@<TRIPOS>MOLECULE
*****
 24 26 0 0 0
SMALL
GASTEIGER

@<TRIPOS>ATOM
      1 C          62.3181   87.0686   11.5023 C.ar    1  UNL1        0.1017
      2 C          60.9917   87.3720   10.8708 C.ar    1  UNL1        0.1179
      3 N          60.5420   88.7948   10.7176 N.ar    1  UNL1       -0.2410
      4 C          61.4185   89.9141   11.1959 C.ar    1  UNL1        0.0972
      5 C          62.7449   89.6106   11.8273 C.ar    1  UNL1        0.0304
      6 C          63.1946   88.1879   11.9805 C.ar    1  UNL1        0.0205
      7 C          63.5712   82.0540   10.4230 C.3     1  UNL1        0.0540
      8 C          63.3438   83.3409   11.1594 C.ar    1  UNL1        0.0807
      9 N          62.8443   84.6226   10.5613 N.ar    1  UNL1       -0.1694
     10 N          62.7679   85.6458   11.6555 N.ar    1  UNL1       -0.2285
     11 C          63.2202   84.9965   12.9298 C.ar    1  UNL1        0.0840
     12 C          63.3538   85.5183   14.3297 C.ar    1  UNL1        0.0192
     13 C          63.8435   84.6156   15.4230 C.ar    1  UNL1        0.0015
     14 C          64.1994   83.1911   15.1164 C.ar    1  UNL1        0.0001
     15 C          64.0658   82.6692   13.7165 C.ar    1  UNL1        0.0027
     16 C          63.5761   83.5719   12.6232 C.ar    1  UNL1        0.0329
     17 C          63.6214   90.7299   12.3056 C.3     1  UNL1        0.1960
     18 C          64.4980   91.8493   12.7839 C.3     1  UNL1        0.0428
     19 O          63.6229   91.3184   10.9258 O.3     1  UNL1       -0.3751
     20 H          63.0888   90.7628   10.3368 H       1  UNL1        0.2110
     21 C          63.6200   90.1415   13.6854 C.3     1  UNL1        0.4231
     22 F          63.6185   89.5531   15.0651 F       1  UNL1       -0.1673
     23 F          65.1199   90.1345   13.6839 F       1  UNL1       -0.1673
     24 F          62.1642   90.0060   14.0206 F       1  UNL1       -0.1673
@<TRIPOS>BOND
     1     7     8    1
     2     8     9   ar
     3     9    10   ar
     4    10     1    1
     5     1     2   ar
     6     2     3   ar
     7     3     4   ar
     8     4     5   ar
     9     5    17    1
    10    17    18    1
    11    17    19    1
    12    17    21    1
    13    21    22    1
    14    21    23    1
    15    21    24    1
    16     5     6   ar
    17    10    11   ar
    18    11    12   ar
    19    12    13   ar
    20    13    14   ar
    21    14    15   ar
    22    15    16   ar
    23    16     8   ar
    24     6     1   ar
    25    16    11   ar
    26    19    20    1
