@<TRIPOS>MOLECULE
*****
 55 60 0 0 0
SMALL
GASTEIGER

@<TRIPOS>ATOM
      1 C          63.3496   91.6506   11.1905 C.3     1  UNL1        0.1269
      2 O          64.1705   92.1856   10.0548 O.3     1  UNL1       -0.3830
      3 H          63.7780   91.9066    9.2127 H       1  UNL1        0.2104
      4 C          62.1303   90.8231   10.9101 C.3     1  UNL1        0.1021
      5 C          61.3632   88.5030   10.0276 C.3     1  UNL1        0.1510
      6 C          61.4480   87.0059   10.0655 C.3     1  UNL1        0.0980
      7 N          62.3845   86.3317   11.0238 N.3     1  UNL1       -0.2663
      8 C          63.2364   87.1547   11.9443 C.3     1  UNL1        0.0899
      9 C          63.1516   88.6518   11.9063 C.3     1  UNL1        0.0901
     10 N          62.2150   89.3260   10.9480 N.3     1  UNL1       -0.2621
     11 N          60.3573   88.7207    7.6421 N.am    1  UNL1       -0.3063
     12 C          60.4267   89.1772    9.0693 C.2     1  UNL1        0.2383
     13 O          59.5596   90.3078    9.5382 O.2     1  UNL1       -0.2736
     14 H          60.9264   87.9787    7.3343 H       1  UNL1        0.1493
     15 C          58.3354   88.4335    7.0681 C.3     1  UNL1        0.0196
     16 C          59.4207   89.3949    6.6838 C.3     1  UNL1        0.0569
     17 C          60.5060   90.3563    6.2995 C.3     1  UNL1        0.0196
     18 C          58.4841   90.0691    5.7254 C.3     1  UNL1        0.0196
     19 C          62.4692   84.8346   11.0617 C.3     1  UNL1        0.0969
     20 C          62.9087   84.8231    9.6276 C.3     1  UNL1        0.0238
     21 C          62.0297   84.8460   12.4958 C.3     1  UNL1        0.0238
     22 C          62.5540   83.3375   11.0996 C.ar    1  UNL1        0.1356
     23 C          62.3988   82.4761   12.3179 C.ar    1  UNL1        0.0388
     24 C          62.5577   81.0451   11.8971 C.ar    1  UNL1        0.0564
     25 C          62.5044   79.7602   12.6691 C.ar    1  UNL1        0.1020
     26 N          62.7044   78.4521   11.9628 N.ar    1  UNL1       -0.2421
     27 C          62.9578   78.4290   10.4845 C.ar    1  UNL1        0.1020
     28 C          63.0111   79.7140    9.7125 C.ar    1  UNL1        0.0581
     29 C          62.8110   81.0220   10.4188 C.ar    1  UNL1        0.1479
     30 O          62.8087   82.4388    9.9260 O.2     1  UNL1       -0.4564
     31 C          63.7479   91.9432   12.6068 C.3     1  UNL1        0.0401
     32 C          64.5460   90.9388   13.3841 C.3     1  UNL1        0.0833
     33 C          63.8488   89.9575   14.2791 C.2     1  UNL1        0.2226
     34 O          62.3777   90.0930   14.5387 O.2     1  UNL1       -0.2751
     35 N          64.6228   88.8406   14.9143 N.am    1  UNL1       -0.2999
     36 H          65.5884   88.7517   14.7439 H       1  UNL1        0.1498
     37 C          63.9257   87.8593   15.8093 C.3     1  UNL1        0.1278
     38 C          64.0545   86.3870   15.5523 C.ar    1  UNL1        0.0320
     39 C          64.8804   85.8962   14.4004 C.ar    1  UNL1        0.0004
     40 C          65.0092   84.4240   14.1434 C.ar    1  UNL1       -0.0001
     41 C          64.3121   83.4427   15.0384 C.ar    1  UNL1        0.0031
     42 C          63.4862   83.9335   16.1903 C.ar    1  UNL1        0.0366
     43 C          63.3574   85.4056   16.4472 C.ar    1  UNL1        0.1362
     44 O          62.5315   85.8965   17.5992 O.3     1  UNL1       -0.4730
     45 C          62.4027   87.3687   17.8561 C.3     1  UNL1        0.2364
     46 C          63.0998   88.3501   16.9612 C.3     1  UNL1        0.1762
     47 O          62.9710   89.8223   17.2182 O.3     1  UNL1       -0.3788
     48 H          62.4071   89.9669   17.9941 H       1  UNL1        0.2106
     49 C          66.0412   90.9158   13.2666 C.3     1  UNL1        0.0355
     50 C          66.8816   91.6979   14.2320 C.ar    1  UNL1       -0.0217
     51 C          68.3356   91.9285   13.9447 C.ar    1  UNL1       -0.0043
     52 C          69.1760   92.7106   14.9102 C.ar    1  UNL1       -0.0003
     53 C          68.5623   93.2622   16.1629 C.ar    1  UNL1       -0.0000
     54 C          67.1082   93.0315   16.4501 C.ar    1  UNL1       -0.0003
     55 C          66.2679   92.2494   15.4847 C.ar    1  UNL1       -0.0043
@<TRIPOS>BOND
     1    15    16    1
     2    16    17    1
     3    16    18    1
     4    16    11    1
     5    11    12   am
     6    12    13    2
     7     5    12    1
     8     5     6    1
     9     6     7    1
    10     7    19    1
    11    19    20    1
    12    19    21    1
    13    19    22    1
    14    22    23   ar
    15    23    24   ar
    16    24    25   ar
    17    25    26   ar
    18    26    27   ar
    19    27    28   ar
    20    28    29   ar
    21    29    30   ar
    22     7     8    1
    23     8     9    1
    24     9    10    1
    25    10     4    1
    26     4     1    1
    27     1     2    1
    28     1    31    1
    29    32    31    1
    30    32    49    1
    31    49    50    1
    32    50    51   ar
    33    51    52   ar
    34    52    53   ar
    35    53    54   ar
    36    54    55   ar
    37    32    33    1
    38    33    34    2
    39    33    35   am
    40    37    35    1
    41    37    38    1
    42    38    39   ar
    43    39    40   ar
    44    40    41   ar
    45    41    42   ar
    46    42    43   ar
    47    43    44    1
    48    44    45    1
    49    45    46    1
    50    46    47    1
    51    10     5    1
    52    55    50   ar
    53    46    37    1
    54    30    22   ar
    55    43    38   ar
    56    29    24   ar
    57    11    14    1
    58     2     3    1
    59    35    36    1
    60    47    48    1
@<TRIPOS>MOLECULE
*****
 55 60 0 0 0
SMALL
GASTEIGER

@<TRIPOS>ATOM
      1 C          63.5925   90.1540   13.8647 C.3     1  UNL1        0.1269
      2 O          62.7600   90.4039   15.0872 O.3     1  UNL1       -0.3830
      3 H          61.8435   90.1372   14.9143 H       1  UNL1        0.2104
      4 C          62.9619   89.5738   12.6336 C.3     1  UNL1        0.1021
      5 C          62.3712   87.5114   11.1681 C.3     1  UNL1        0.1510
      6 C          62.3620   86.0260   10.9591 C.3     1  UNL1        0.0980
      7 N          62.9342   85.1177   12.0067 N.3     1  UNL1       -0.2663
      8 C          63.5157   85.6947   13.2633 C.3     1  UNL1        0.0899
      9 C          63.5249   87.1801   13.4723 C.3     1  UNL1        0.0901
     10 N          62.9527   88.0884   12.4246 N.3     1  UNL1       -0.2621
     11 N          60.4722   88.1029    9.4966 N.am    1  UNL1       -0.3063
     12 C          61.7990   88.4197   10.1205 C.2     1  UNL1        0.2383
     13 O          62.5536   89.6449    9.6967 O.2     1  UNL1       -0.2736
     14 H          59.9769   87.2988    9.7747 H       1  UNL1        0.1493
     15 C          59.8466   87.8644    7.4838 C.3     1  UNL1        0.0196
     16 C          59.9000   89.0112    8.4490 C.3     1  UNL1        0.0569
     17 C          59.9533   90.1581    9.4143 C.3     1  UNL1        0.0196
     18 C          59.3277   89.9196    7.4014 C.3     1  UNL1        0.0196
     19 C          62.9250   83.6324   11.7977 C.3     1  UNL1        0.0969
     20 C          63.1590   83.8374   10.3303 C.3     1  UNL1        0.0238
     21 C          62.6910   83.4274   13.2651 C.3     1  UNL1        0.0238
     22 C          62.9158   82.1470   11.5888 C.ar    1  UNL1        0.1356
     23 C          62.6858   81.1092   12.6472 C.ar    1  UNL1        0.0388
     24 C          62.7628   79.7594   11.9972 C.ar    1  UNL1        0.0564
     25 C          62.6161   78.3713   12.5462 C.ar    1  UNL1        0.1020
     26 N          62.7468   77.1868   11.6353 N.ar    1  UNL1       -0.2421
     27 C          63.0243   77.3905   10.1753 C.ar    1  UNL1        0.1020
     28 C          63.1710   78.7786    9.6263 C.ar    1  UNL1        0.0581
     29 C          63.0403   79.9631   10.5372 C.ar    1  UNL1        0.1479
     30 O          63.1348   81.4387   10.2848 O.2     1  UNL1       -0.4564
     31 C          65.0556   90.4845   13.8734 C.3     1  UNL1        0.0401
     32 C          65.5011   91.9167   13.8674 C.3     1  UNL1        0.0833
     33 C          65.6742   92.6429   12.5664 C.2     1  UNL1        0.2226
     34 O          64.9997   92.1330   11.3273 O.2     1  UNL1       -0.2751
     35 N          66.5216   93.8790   12.5044 N.am    1  UNL1       -0.2999
     36 H          66.9643   94.2137   13.3176 H       1  UNL1        0.1498
     37 C          66.6947   94.6052   11.2033 C.3     1  UNL1        0.1278
     38 C          67.4070   93.9409   10.0625 C.ar    1  UNL1        0.0320
     39 C          67.9462   92.5504   10.2228 C.ar    1  UNL1        0.0004
     40 C          68.6585   91.8861    9.0821 C.ar    1  UNL1       -0.0001
     41 C          68.8315   92.6123    7.7810 C.ar    1  UNL1        0.0031
     42 C          68.2923   94.0028    7.6208 C.ar    1  UNL1        0.0366
     43 C          67.5800   94.6671    8.7615 C.ar    1  UNL1        0.1362
     44 O          67.0408   96.0577    8.6013 O.3     1  UNL1       -0.4730
     45 C          66.3285   96.7219    9.7420 C.3     1  UNL1        0.2364
     46 C          66.1554   95.9957   11.0431 C.3     1  UNL1        0.1762
     47 O          65.4431   96.6601   12.1839 O.3     1  UNL1       -0.3788
     48 H          65.1607   97.5484   11.9154 H       1  UNL1        0.2106
     49 C          65.7736   92.6229   15.1625 C.3     1  UNL1        0.0355
     50 C          67.1871   92.8762   15.5957 C.ar    1  UNL1       -0.0217
     51 C          67.7403   94.2702   15.5720 C.ar    1  UNL1       -0.0043
     52 C          69.1539   94.5236   16.0052 C.ar    1  UNL1       -0.0003
     53 C          70.0143   93.3829   16.4621 C.ar    1  UNL1       -0.0000
     54 C          69.4609   91.9888   16.4857 C.ar    1  UNL1       -0.0003
     55 C          68.0474   91.7355   16.0525 C.ar    1  UNL1       -0.0043
@<TRIPOS>BOND
     1    15    16    1
     2    16    17    1
     3    16    18    1
     4    16    11    1
     5    11    12   am
     6    12    13    2
     7     5    12    1
     8     5     6    1
     9     6     7    1
    10     7    19    1
    11    19    20    1
    12    19    21    1
    13    19    22    1
    14    22    23   ar
    15    23    24   ar
    16    24    25   ar
    17    25    26   ar
    18    26    27   ar
    19    27    28   ar
    20    28    29   ar
    21    29    30   ar
    22     7     8    1
    23     8     9    1
    24     9    10    1
    25    10     4    1
    26     4     1    1
    27     1     2    1
    28     1    31    1
    29    32    31    1
    30    32    49    1
    31    49    50    1
    32    50    51   ar
    33    51    52   ar
    34    52    53   ar
    35    53    54   ar
    36    54    55   ar
    37    32    33    1
    38    33    34    2
    39    33    35   am
    40    37    35    1
    41    37    38    1
    42    38    39   ar
    43    39    40   ar
    44    40    41   ar
    45    41    42   ar
    46    42    43   ar
    47    43    44    1
    48    44    45    1
    49    45    46    1
    50    46    47    1
    51    10     5    1
    52    55    50   ar
    53    46    37    1
    54    30    22   ar
    55    43    38   ar
    56    29    24   ar
    57    11    14    1
    58     2     3    1
    59    35    36    1
    60    47    48    1
@<TRIPOS>MOLECULE
*****
 55 60 0 0 0
SMALL
GASTEIGER

@<TRIPOS>ATOM
      1 C          63.2785   91.6228   11.0678 C.3     1  UNL1        0.1269
      2 O          64.1281   91.9658    9.8801 O.3     1  UNL1       -0.3830
      3 H          63.7430   91.5710    9.0822 H       1  UNL1        0.2104
      4 C          62.0464   90.7855   10.8918 C.3     1  UNL1        0.1021
      5 C          61.3025   88.4591   10.0062 C.3     1  UNL1        0.1510
      6 C          61.4011   86.9628   10.0431 C.3     1  UNL1        0.0980
      7 N          62.3422   86.2966   11.0025 N.3     1  UNL1       -0.2663
      8 C          63.1848   87.1267   11.9251 C.3     1  UNL1        0.0899
      9 C          63.0862   88.6230   11.8881 C.3     1  UNL1        0.0901
     10 N          62.1450   89.2892   10.9287 N.3     1  UNL1       -0.2621
     11 N          60.3361   88.7050    7.6071 N.am    1  UNL1       -0.3063
     12 C          60.3614   89.1252    9.0469 C.2     1  UNL1        0.2383
     13 O          59.4454   90.2117    9.5272 O.2     1  UNL1       -0.2736
     14 H          60.9373   87.9919    7.2919 H       1  UNL1        0.1493
     15 C          58.3098   88.4169    7.0497 C.3     1  UNL1        0.0196
     16 C          59.3950   89.3712    6.6478 C.3     1  UNL1        0.0569
     17 C          60.4802   90.3254    6.2458 C.3     1  UNL1        0.0196
     18 C          58.4538   90.0374    5.6883 C.3     1  UNL1        0.0196
     19 C          62.4408   84.8003   11.0394 C.3     1  UNL1        0.0969
     20 C          62.8219   84.7896    9.5887 C.3     1  UNL1        0.0238
     21 C          62.0597   84.8109   12.4902 C.3     1  UNL1        0.0238
     22 C          62.5393   83.3040   11.0763 C.ar    1  UNL1        0.1356
     23 C          62.4068   82.4414   12.2964 C.ar    1  UNL1        0.0388
     24 C          62.5733   81.0119   11.8737 C.ar    1  UNL1        0.0564
     25 C          62.5409   79.7266   12.6463 C.ar    1  UNL1        0.1020
     26 N          62.7441   78.4203   11.9377 N.ar    1  UNL1       -0.2421
     27 C          62.9795   78.3992   10.4564 C.ar    1  UNL1        0.1020
     28 C          63.0119   79.6845    9.6838 C.ar    1  UNL1        0.0581
     29 C          62.8088   80.9908   10.3925 C.ar    1  UNL1        0.1479
     30 O          62.7878   82.4074    9.8997 O.2     1  UNL1       -0.4564
     31 C          63.6609   92.1172   12.4314 C.3     1  UNL1        0.0401
     32 C          64.5035   91.2617   13.3302 C.3     1  UNL1        0.0833
     33 C          63.8543   90.2503   14.2278 C.2     1  UNL1        0.2226
     34 O          62.3789   90.3177   14.4900 O.2     1  UNL1       -0.2751
     35 N          64.6805   89.1715   14.8630 N.am    1  UNL1       -0.2999
     36 H          65.6488   89.1272   14.6909 H       1  UNL1        0.1498
     37 C          64.0313   88.1600   15.7606 C.3     1  UNL1        0.1278
     38 C          64.1907   86.6953   15.4788 C.ar    1  UNL1        0.0320
     39 C          64.9994   86.2421   14.2995 C.ar    1  UNL1        0.0004
     40 C          65.1588   84.7775   14.0178 C.ar    1  UNL1       -0.0001
     41 C          64.5096   83.7661   14.9153 C.ar    1  UNL1        0.0031
     42 C          63.7010   84.2193   16.0945 C.ar    1  UNL1        0.0366
     43 C          63.5415   85.6839   16.3763 C.ar    1  UNL1        0.1362
     44 O          62.7329   86.1371   17.5556 O.3     1  UNL1       -0.4730
     45 C          62.5735   87.6018   17.8373 C.3     1  UNL1        0.2364
     46 C          63.2227   88.6132   16.9398 C.3     1  UNL1        0.1762
     47 O          63.0632   90.0779   17.2216 O.3     1  UNL1       -0.3788
     48 H          62.5157   90.1971   18.0134 H       1  UNL1        0.2106
     49 C          65.9955   91.4176   13.3316 C.3     1  UNL1        0.0355
     50 C          66.6675   92.2127   12.2518 C.ar    1  UNL1       -0.0217
     51 C          66.2532   93.6317   11.9971 C.ar    1  UNL1       -0.0043
     52 C          66.9252   94.4269   10.9172 C.ar    1  UNL1       -0.0003
     53 C          68.0115   93.8031   10.0920 C.ar    1  UNL1       -0.0000
     54 C          68.4257   92.3841   10.3467 C.ar    1  UNL1       -0.0003
     55 C          67.7537   91.5889   11.4266 C.ar    1  UNL1       -0.0043
@<TRIPOS>BOND
     1    15    16    1
     2    16    17    1
     3    16    18    1
     4    16    11    1
     5    11    12   am
     6    12    13    2
     7     5    12    1
     8     5     6    1
     9     6     7    1
    10     7    19    1
    11    19    20    1
    12    19    21    1
    13    19    22    1
    14    22    23   ar
    15    23    24   ar
    16    24    25   ar
    17    25    26   ar
    18    26    27   ar
    19    27    28   ar
    20    28    29   ar
    21    29    30   ar
    22     7     8    1
    23     8     9    1
    24     9    10    1
    25    10     4    1
    26     4     1    1
    27     1     2    1
    28     1    31    1
    29    32    31    1
    30    32    49    1
    31    49    50    1
    32    50    51   ar
    33    51    52   ar
    34    52    53   ar
    35    53    54   ar
    36    54    55   ar
    37    32    33    1
    38    33    34    2
    39    33    35   am
    40    37    35    1
    41    37    38    1
    42    38    39   ar
    43    39    40   ar
    44    40    41   ar
    45    41    42   ar
    46    42    43   ar
    47    43    44    1
    48    44    45    1
    49    45    46    1
    50    46    47    1
    51    10     5    1
    52    55    50   ar
    53    46    37    1
    54    30    22   ar
    55    43    38   ar
    56    29    24   ar
    57    11    14    1
    58     2     3    1
    59    35    36    1
    60    47    48    1
@<TRIPOS>MOLECULE
*****
 55 60 0 0 0
SMALL
GASTEIGER

@<TRIPOS>ATOM
      1 C          60.0459   88.5184    8.6856 C.3     1  UNL1        0.1269
      2 O          59.6919   88.0769    7.2965 O.3     1  UNL1       -0.3830
      3 H          59.6471   88.8504    6.7129 H       1  UNL1        0.2104
      4 C          60.2676   89.9731    8.9766 C.3     1  UNL1        0.1021
      5 C          61.1342   90.5022   11.3680 C.3     1  UNL1        0.1510
      6 C          62.2453   90.9231   12.2836 C.3     1  UNL1        0.0980
      7 N          63.6011   91.2357   11.7232 N.3     1  UNL1       -0.2663
      8 C          63.8458   91.1274   10.2472 C.3     1  UNL1        0.0899
      9 C          62.7346   90.7066    9.3316 C.3     1  UNL1        0.0901
     10 N          61.3788   90.3940    9.8921 N.3     1  UNL1       -0.2621
     11 N          59.5567   88.9159   12.6891 N.am    1  UNL1       -0.3063
     12 C          59.7784   90.1896   11.9284 C.2     1  UNL1        0.2383
     13 O          58.6443   91.1507   11.7282 O.2     1  UNL1       -0.2736
     14 H          60.3010   88.2851   12.8205 H       1  UNL1        0.1493
     15 C          58.7696   88.6246   14.6373 C.3     1  UNL1        0.0196
     16 C          58.2009   88.6033   13.2495 C.3     1  UNL1        0.0569
     17 C          57.6322   88.5820   11.8617 C.3     1  UNL1        0.0196
     18 C          56.8450   88.2907   13.8099 C.3     1  UNL1        0.0196
     19 C          64.7123   91.6565   12.6387 C.3     1  UNL1        0.0969
     20 C          65.2381   92.5769   11.5775 C.3     1  UNL1        0.0238
     21 C          64.1865   90.7360   13.7000 C.3     1  UNL1        0.0238
     22 C          65.8235   92.0773   13.5543 C.ar    1  UNL1        0.1356
     23 C          66.6524   91.1670   14.4112 C.ar    1  UNL1        0.0388
     24 C          67.6420   92.0095   15.1602 C.ar    1  UNL1        0.0564
     25 C          68.7129   91.6585   16.1500 C.ar    1  UNL1        0.1020
     26 N          69.5666   92.7384   16.7459 N.ar    1  UNL1       -0.2421
     27 C          69.3493   94.1693   16.3519 C.ar    1  UNL1        0.1020
     28 C          68.2784   94.5203   15.3620 C.ar    1  UNL1        0.0581
     29 C          67.4247   93.4404   14.7661 C.ar    1  UNL1        0.1479
     30 O          66.3008   93.4823   13.7737 O.2     1  UNL1       -0.4564
     31 C          60.1782   87.5052    9.7838 C.3     1  UNL1        0.0401
     32 C          61.4542   86.7327    9.9417 C.3     1  UNL1        0.0833
     33 C          61.7802   86.0832   11.2539 C.2     1  UNL1        0.2226
     34 O          60.9420   86.3740   12.4634 O.2     1  UNL1       -0.2751
     35 N          62.9445   85.1431   11.3567 N.am    1  UNL1       -0.2999
     36 H          63.4947   84.9523   10.5629 H       1  UNL1        0.1498
     37 C          63.2706   84.4937   12.6689 C.3     1  UNL1        0.1278
     38 C          63.1483   83.0063   12.8205 C.ar    1  UNL1        0.0320
     39 C          62.7000   82.1685   11.6600 C.ar    1  UNL1        0.0004
     40 C          62.5777   80.6812   11.8116 C.ar    1  UNL1       -0.0001
     41 C          62.9038   80.0318   13.1238 C.ar    1  UNL1        0.0031
     42 C          63.3521   80.8697   14.2844 C.ar    1  UNL1        0.0366
     43 C          63.4743   82.3569   14.1328 C.ar    1  UNL1        0.1362
     44 O          63.9227   83.1949   15.2934 O.3     1  UNL1       -0.4730
     45 C          64.0449   84.6821   15.1417 C.3     1  UNL1        0.2364
     46 C          63.7189   85.3315   13.8295 C.3     1  UNL1        0.1762
     47 O          63.8411   86.8189   13.6779 O.3     1  UNL1       -0.3788
     48 H          64.1401   87.2058   14.5156 H       1  UNL1        0.2106
     49 C          62.4042   86.6095    8.7874 C.3     1  UNL1        0.0355
     50 C          62.0969   85.6687    7.6602 C.ar    1  UNL1       -0.0217
     51 C          60.6741   85.3084    7.3509 C.ar    1  UNL1       -0.0043
     52 C          60.3667   84.3676    6.2237 C.ar    1  UNL1       -0.0003
     53 C          61.4822   83.7872    5.4059 C.ar    1  UNL1       -0.0000
     54 C          62.9051   84.1475    5.7153 C.ar    1  UNL1       -0.0003
     55 C          63.2124   85.0883    6.8424 C.ar    1  UNL1       -0.0043
@<TRIPOS>BOND
     1    15    16    1
     2    16    17    1
     3    16    18    1
     4    16    11    1
     5    11    12   am
     6    12    13    2
     7     5    12    1
     8     5     6    1
     9     6     7    1
    10     7    19    1
    11    19    20    1
    12    19    21    1
    13    19    22    1
    14    22    23   ar
    15    23    24   ar
    16    24    25   ar
    17    25    26   ar
    18    26    27   ar
    19    27    28   ar
    20    28    29   ar
    21    29    30   ar
    22     7     8    1
    23     8     9    1
    24     9    10    1
    25    10     4    1
    26     4     1    1
    27     1     2    1
    28     1    31    1
    29    32    31    1
    30    32    49    1
    31    49    50    1
    32    50    51   ar
    33    51    52   ar
    34    52    53   ar
    35    53    54   ar
    36    54    55   ar
    37    32    33    1
    38    33    34    2
    39    33    35   am
    40    37    35    1
    41    37    38    1
    42    38    39   ar
    43    39    40   ar
    44    40    41   ar
    45    41    42   ar
    46    42    43   ar
    47    43    44    1
    48    44    45    1
    49    45    46    1
    50    46    47    1
    51    10     5    1
    52    55    50   ar
    53    46    37    1
    54    30    22   ar
    55    43    38   ar
    56    29    24   ar
    57    11    14    1
    58     2     3    1
    59    35    36    1
    60    47    48    1
@<TRIPOS>MOLECULE
*****
 55 60 0 0 0
SMALL
GASTEIGER

@<TRIPOS>ATOM
      1 C          60.9627   86.3341    9.1495 C.3     1  UNL1        0.1269
      2 O          60.5052   85.0791    8.4671 O.3     1  UNL1       -0.3830
      3 H          59.5974   85.1978    8.1467 H       1  UNL1        0.2104
      4 C          60.0419   87.5145    9.2446 C.3     1  UNL1        0.1021
      5 C          60.5333   89.8848    8.3011 C.3     1  UNL1        0.1510
      6 C          60.4651   90.8753    7.1767 C.3     1  UNL1        0.0980
      7 N          59.8373   90.4859    5.8713 N.3     1  UNL1       -0.2663
      8 C          59.2777   89.1059    5.6902 C.3     1  UNL1        0.0899
      9 C          59.3459   88.1155    6.8146 C.3     1  UNL1        0.0901
     10 N          59.9737   88.5049    8.1201 N.3     1  UNL1       -0.2621
     11 N          62.6508   90.4175    9.7092 N.am    1  UNL1       -0.3063
     12 C          61.1611   90.2742    9.6066 C.2     1  UNL1        0.2383
     13 O          60.2993   90.5204   10.8094 O.2     1  UNL1       -0.2736
     14 H          63.2164   90.2559    8.9198 H       1  UNL1        0.1493
     15 C          62.7192   89.5699   11.6526 C.3     1  UNL1        0.0196
     16 C          63.2786   90.8069   11.0147 C.3     1  UNL1        0.0569
     17 C          63.8380   92.0438   10.3767 C.3     1  UNL1        0.0196
     18 C          63.9064   91.1962   12.3202 C.3     1  UNL1        0.0196
     19 C          59.7691   91.4763    4.7468 C.3     1  UNL1        0.0969
     20 C          61.2328   91.2792    4.4845 C.3     1  UNL1        0.0238
     21 C          58.3054   91.6734    5.0092 C.3     1  UNL1        0.0238
     22 C          59.7009   92.4668    3.6224 C.ar    1  UNL1        0.1356
     23 C          59.2414   92.1819    2.2232 C.ar    1  UNL1        0.0388
     24 C          59.3367   93.4551    1.4358 C.ar    1  UNL1        0.0564
     25 C          59.0185   93.7770    0.0058 C.ar    1  UNL1        0.1020
     26 N          59.2186   95.1706   -0.5117 N.ar    1  UNL1       -0.2421
     27 C          59.7370   96.2423    0.4008 C.ar    1  UNL1        0.1020
     28 C          60.0553   95.9204    1.8309 C.ar    1  UNL1        0.0581
     29 C          59.8551   94.5268    2.3483 C.ar    1  UNL1        0.1479
     30 O          60.0802   93.9160    3.6997 O.2     1  UNL1       -0.4564
     31 C          62.3409   86.4088    9.7368 C.3     1  UNL1        0.0401
     32 C          62.7501   85.4487   10.8141 C.3     1  UNL1        0.0833
     33 C          62.4580   85.7647   12.2510 C.2     1  UNL1        0.2226
     34 O          61.1001   86.2634   12.6482 O.2     1  UNL1       -0.2751
     35 N          63.5236   85.5822   13.2908 N.am    1  UNL1       -0.2999
     36 H          64.4148   85.2549   13.0301 H       1  UNL1        0.1498
     37 C          63.2314   85.8982   14.7277 C.3     1  UNL1        0.1278
     38 C          63.4269   87.2932   15.2435 C.ar    1  UNL1        0.0320
     39 C          63.9146   88.3719   14.3225 C.ar    1  UNL1        0.0004
     40 C          64.1100   89.7668   14.8383 C.ar    1  UNL1       -0.0001
     41 C          63.8179   90.0828   16.2752 C.ar    1  UNL1        0.0031
     42 C          63.3303   89.0041   17.1963 C.ar    1  UNL1        0.0366
     43 C          63.1348   87.6092   16.6805 C.ar    1  UNL1        0.1362
     44 O          62.6471   86.5303   17.6015 O.3     1  UNL1       -0.4730
     45 C          62.4517   85.1355   17.0857 C.3     1  UNL1        0.2364
     46 C          62.7438   84.8194   15.6487 C.3     1  UNL1        0.1762
     47 O          62.5483   83.4245   15.1329 O.3     1  UNL1       -0.3788
     48 H          62.2317   82.8554   15.8517 H       1  UNL1        0.2106
     49 C          63.4516   84.1724   10.4545 C.3     1  UNL1        0.0355
     50 C          63.4732   83.0293   11.4254 C.ar    1  UNL1       -0.0217
     51 C          64.7465   82.6696   12.1321 C.ar    1  UNL1       -0.0043
     52 C          64.7682   81.5264   13.1031 C.ar    1  UNL1       -0.0003
     53 C          63.5166   80.7429   13.3673 C.ar    1  UNL1       -0.0000
     54 C          62.2433   81.1027   12.6606 C.ar    1  UNL1       -0.0003
     55 C          62.2217   82.2458   11.6897 C.ar    1  UNL1       -0.0043
@<TRIPOS>BOND
     1    15    16    1
     2    16    17    1
     3    16    18    1
     4    16    11    1
     5    11    12   am
     6    12    13    2
     7     5    12    1
     8     5     6    1
     9     6     7    1
    10     7    19    1
    11    19    20    1
    12    19    21    1
    13    19    22    1
    14    22    23   ar
    15    23    24   ar
    16    24    25   ar
    17    25    26   ar
    18    26    27   ar
    19    27    28   ar
    20    28    29   ar
    21    29    30   ar
    22     7     8    1
    23     8     9    1
    24     9    10    1
    25    10     4    1
    26     4     1    1
    27     1     2    1
    28     1    31    1
    29    32    31    1
    30    32    49    1
    31    49    50    1
    32    50    51   ar
    33    51    52   ar
    34    52    53   ar
    35    53    54   ar
    36    54    55   ar
    37    32    33    1
    38    33    34    2
    39    33    35   am
    40    37    35    1
    41    37    38    1
    42    38    39   ar
    43    39    40   ar
    44    40    41   ar
    45    41    42   ar
    46    42    43   ar
    47    43    44    1
    48    44    45    1
    49    45    46    1
    50    46    47    1
    51    10     5    1
    52    55    50   ar
    53    46    37    1
    54    30    22   ar
    55    43    38   ar
    56    29    24   ar
    57    11    14    1
    58     2     3    1
    59    35    36    1
    60    47    48    1
@<TRIPOS>MOLECULE
*****
 55 60 0 0 0
SMALL
GASTEIGER

@<TRIPOS>ATOM
      1 C          60.6019   87.5187   10.4121 C.3     1  UNL1        0.1269
      2 O          60.4820   87.2579   11.8844 O.3     1  UNL1       -0.3830
      3 H          59.5643   87.4009   12.1644 H       1  UNL1        0.2104
      4 C          59.3951   87.9322    9.6229 C.3     1  UNL1        0.1021
      5 C          60.3535   90.0462    8.4557 C.3     1  UNL1        0.1510
      6 C          60.5145   90.8912    7.2269 C.3     1  UNL1        0.0980
      7 N          59.8779   90.4674    5.9365 N.3     1  UNL1       -0.2663
      8 C          59.0804   89.1984    5.8749 C.3     1  UNL1        0.0899
      9 C          58.9195   88.3533    7.1037 C.3     1  UNL1        0.0901
     10 N          59.5561   88.7772    8.3941 N.3     1  UNL1       -0.2621
     11 N          62.4822   90.4306    9.8948 N.am    1  UNL1       -0.3063
     12 C          60.9901   90.4700    9.7461 C.2     1  UNL1        0.2383
     13 O          60.1345   90.9333   10.8877 O.2     1  UNL1       -0.2736
     14 H          63.0437   90.1265    9.1455 H       1  UNL1        0.1493
     15 C          63.8473   91.9506   10.4658 C.3     1  UNL1        0.0196
     16 C          63.1187   90.8544   11.1852 C.3     1  UNL1        0.0569
     17 C          62.3902   89.7583   11.9046 C.3     1  UNL1        0.0196
     18 C          63.7553   91.2784   12.4756 C.3     1  UNL1        0.0196
     19 C          60.0389   91.3124    4.7077 C.3     1  UNL1        0.0969
     20 C          58.5833   91.6704    4.7632 C.3     1  UNL1        0.0238
     21 C          61.4945   90.9544    4.6522 C.3     1  UNL1        0.0238
     22 C          60.1998   92.1575    3.4789 C.ar    1  UNL1        0.1356
     23 C          61.4978   92.5078    2.8136 C.ar    1  UNL1        0.0388
     24 C          61.1912   93.3675    1.6231 C.ar    1  UNL1        0.0564
     25 C          62.0743   94.0088    0.5942 C.ar    1  UNL1        0.1020
     26 N          61.4700   94.8311   -0.5052 N.ar    1  UNL1       -0.2421
     27 C          59.9826   95.0120   -0.5756 C.ar    1  UNL1        0.1020
     28 C          59.0995   94.3706    0.4533 C.ar    1  UNL1        0.0581
     29 C          59.7038   93.5484    1.5527 C.ar    1  UNL1        0.1479
     30 O          59.0912   92.8006    2.6996 O.2     1  UNL1       -0.4564
     31 C          61.9286   87.3660    9.7290 C.3     1  UNL1        0.0401
     32 C          62.6179   86.0339    9.7186 C.3     1  UNL1        0.0833
     33 C          62.5821   85.1613   10.9382 C.2     1  UNL1        0.2226
     34 O          61.2665   84.7014   11.4930 O.2     1  UNL1       -0.2751
     35 N          63.8618   84.7487   11.6030 N.am    1  UNL1       -0.2999
     36 H          64.7252   85.0506   11.2390 H       1  UNL1        0.1498
     37 C          63.8260   83.8762   12.8226 C.3     1  UNL1        0.1278
     38 C          63.4461   82.4302   12.6994 C.ar    1  UNL1        0.0320
     39 C          63.1021   81.8570   11.3567 C.ar    1  UNL1        0.0004
     40 C          62.7223   80.4111   11.2336 C.ar    1  UNL1       -0.0001
     41 C          62.6865   79.5386   12.4532 C.ar    1  UNL1        0.0031
     42 C          63.0305   80.1119   13.7959 C.ar    1  UNL1        0.0366
     43 C          63.4103   81.5577   13.9190 C.ar    1  UNL1        0.1362
     44 O          63.7543   82.1311   15.2618 O.3     1  UNL1       -0.4730
     45 C          64.1342   83.5769   15.3849 C.3     1  UNL1        0.2364
     46 C          64.1700   84.4495   14.1653 C.3     1  UNL1        0.1762
     47 O          64.5498   85.8954   14.2885 O.3     1  UNL1       -0.3788
     48 H          64.7402   86.1017   15.2170 H       1  UNL1        0.2106
     49 C          63.3431   85.5742    8.4886 C.3     1  UNL1        0.0355
     50 C          62.5711   85.0454    7.3164 C.ar    1  UNL1       -0.0217
     51 C          63.2987   84.5171    6.1158 C.ar    1  UNL1       -0.0043
     52 C          62.5267   83.9882    4.9435 C.ar    1  UNL1       -0.0003
     53 C          61.0269   83.9877    4.9718 C.ar    1  UNL1       -0.0000
     54 C          60.2993   84.5160    6.1724 C.ar    1  UNL1       -0.0003
     55 C          61.0713   85.0448    7.3447 C.ar    1  UNL1       -0.0043
@<TRIPOS>BOND
     1    15    16    1
     2    16    17    1
     3    16    18    1
     4    16    11    1
     5    11    12   am
     6    12    13    2
     7     5    12    1
     8     5     6    1
     9     6     7    1
    10     7    19    1
    11    19    20    1
    12    19    21    1
    13    19    22    1
    14    22    23   ar
    15    23    24   ar
    16    24    25   ar
    17    25    26   ar
    18    26    27   ar
    19    27    28   ar
    20    28    29   ar
    21    29    30   ar
    22     7     8    1
    23     8     9    1
    24     9    10    1
    25    10     4    1
    26     4     1    1
    27     1     2    1
    28     1    31    1
    29    32    31    1
    30    32    49    1
    31    49    50    1
    32    50    51   ar
    33    51    52   ar
    34    52    53   ar
    35    53    54   ar
    36    54    55   ar
    37    32    33    1
    38    33    34    2
    39    33    35   am
    40    37    35    1
    41    37    38    1
    42    38    39   ar
    43    39    40   ar
    44    40    41   ar
    45    41    42   ar
    46    42    43   ar
    47    43    44    1
    48    44    45    1
    49    45    46    1
    50    46    47    1
    51    10     5    1
    52    55    50   ar
    53    46    37    1
    54    30    22   ar
    55    43    38   ar
    56    29    24   ar
    57    11    14    1
    58     2     3    1
    59    35    36    1
    60    47    48    1
@<TRIPOS>MOLECULE
*****
 55 60 0 0 0
SMALL
GASTEIGER

@<TRIPOS>ATOM
      1 C          59.9734   88.3798    8.6173 C.3     1  UNL1        0.1269
      2 O          59.7149   87.9943    7.1910 O.3     1  UNL1       -0.3830
      3 H          59.6692   88.7935    6.6432 H       1  UNL1        0.2104
      4 C          60.1170   89.8259    8.9892 C.3     1  UNL1        0.1021
      5 C          60.9998   90.3930   11.3659 C.3     1  UNL1        0.1510
      6 C          62.1171   90.8282   12.2671 C.3     1  UNL1        0.0980
      7 N          63.4691   91.1317   11.6926 N.3     1  UNL1       -0.2663
      8 C          63.7038   90.9999   10.2169 C.3     1  UNL1        0.0899
      9 C          62.5864   90.5646    9.3158 C.3     1  UNL1        0.0901
     10 N          61.2344   90.2612    9.8903 N.3     1  UNL1       -0.2621
     11 N          59.4120   88.7944   12.6597 N.am    1  UNL1       -0.3063
     12 C          59.6478   90.0895   11.9404 C.2     1  UNL1        0.2383
     13 O          58.5316   91.0810   11.7957 O.2     1  UNL1       -0.2736
     14 H          60.1446   88.1436   12.7547 H       1  UNL1        0.1493
     15 C          58.6427   88.5114   14.6162 C.3     1  UNL1        0.0196
     16 C          58.0601   88.4910   13.2342 C.3     1  UNL1        0.0569
     17 C          57.4774   88.4705   11.8521 C.3     1  UNL1        0.0196
     18 C          56.7080   88.1875   13.8087 C.3     1  UNL1        0.0196
     19 C          64.5864   91.5670   12.5938 C.3     1  UNL1        0.0969
     20 C          65.0906   92.4890   11.5234 C.3     1  UNL1        0.0238
     21 C          64.0823   90.6450   13.6642 C.3     1  UNL1        0.0238
     22 C          65.7038   92.0022   13.4949 C.ar    1  UNL1        0.1356
     23 C          66.5653   91.1014   14.3295 C.ar    1  UNL1        0.0388
     24 C          67.5497   91.9572   15.0701 C.ar    1  UNL1        0.0564
     25 C          68.6439   91.6193   16.0389 C.ar    1  UNL1        0.1020
     26 N          69.4850   92.7111   16.6309 N.ar    1  UNL1       -0.2421
     27 C          69.2320   94.1408   16.2540 C.ar    1  UNL1        0.1020
     28 C          68.1379   94.4787   15.2852 C.ar    1  UNL1        0.0581
     29 C          67.2967   93.3869   14.6932 C.ar    1  UNL1        0.1479
     30 O          66.1559   93.4147   13.7197 O.2     1  UNL1       -0.4564
     31 C          60.0884   87.3193    9.6718 C.3     1  UNL1        0.0401
     32 C          61.3692   86.5547    9.8301 C.3     1  UNL1        0.0833
     33 C          61.6780   85.8692   11.1281 C.2     1  UNL1        0.2226
     34 O          60.9445   86.2614   12.3764 O.2     1  UNL1       -0.2751
     35 N          62.7201   84.7916   11.1778 N.am    1  UNL1       -0.2999
     36 H          63.2015   84.5342   10.3585 H       1  UNL1        0.1498
     37 C          63.0289   84.1061   12.4758 C.3     1  UNL1        0.1278
     38 C          63.5393   84.9011   13.6409 C.ar    1  UNL1        0.0320
     39 C          63.7410   86.3815   13.5081 C.ar    1  UNL1        0.0004
     40 C          64.2513   87.1764   14.6732 C.ar    1  UNL1       -0.0001
     41 C          64.5601   86.4910   15.9712 C.ar    1  UNL1        0.0031
     42 C          64.3585   85.0105   16.1040 C.ar    1  UNL1        0.0366
     43 C          63.8481   84.2156   14.9389 C.ar    1  UNL1        0.1362
     44 O          63.6465   82.7351   15.0717 O.3     1  UNL1       -0.4730
     45 C          63.1361   81.9402   13.9066 C.3     1  UNL1        0.2364
     46 C          62.8273   82.6257   12.6086 C.3     1  UNL1        0.1762
     47 O          62.3169   81.8307   11.4435 O.3     1  UNL1       -0.3788
     48 H          62.2446   80.8969   11.6960 H       1  UNL1        0.2106
     49 C          62.3413   86.4757    8.6904 C.3     1  UNL1        0.0355
     50 C          62.0693   85.5586    7.5350 C.ar    1  UNL1       -0.0217
     51 C          63.2028   85.0684    6.6836 C.ar    1  UNL1       -0.0043
     52 C          62.9309   84.1514    5.5281 C.ar    1  UNL1       -0.0003
     53 C          61.5254   83.7245    5.2240 C.ar    1  UNL1       -0.0000
     54 C          60.3919   84.2148    6.0754 C.ar    1  UNL1       -0.0003
     55 C          60.6638   85.1318    7.2309 C.ar    1  UNL1       -0.0043
@<TRIPOS>BOND
     1    15    16    1
     2    16    17    1
     3    16    18    1
     4    16    11    1
     5    11    12   am
     6    12    13    2
     7     5    12    1
     8     5     6    1
     9     6     7    1
    10     7    19    1
    11    19    20    1
    12    19    21    1
    13    19    22    1
    14    22    23   ar
    15    23    24   ar
    16    24    25   ar
    17    25    26   ar
    18    26    27   ar
    19    27    28   ar
    20    28    29   ar
    21    29    30   ar
    22     7     8    1
    23     8     9    1
    24     9    10    1
    25    10     4    1
    26     4     1    1
    27     1     2    1
    28     1    31    1
    29    32    31    1
    30    32    49    1
    31    49    50    1
    32    50    51   ar
    33    51    52   ar
    34    52    53   ar
    35    53    54   ar
    36    54    55   ar
    37    32    33    1
    38    33    34    2
    39    33    35   am
    40    37    35    1
    41    37    38    1
    42    38    39   ar
    43    39    40   ar
    44    40    41   ar
    45    41    42   ar
    46    42    43   ar
    47    43    44    1
    48    44    45    1
    49    45    46    1
    50    46    47    1
    51    10     5    1
    52    55    50   ar
    53    46    37    1
    54    30    22   ar
    55    43    38   ar
    56    29    24   ar
    57    11    14    1
    58     2     3    1
    59    35    36    1
    60    47    48    1
@<TRIPOS>MOLECULE
*****
 55 60 0 0 0
SMALL
GASTEIGER

@<TRIPOS>ATOM
      1 C          60.6704   87.1797   10.4411 C.3     1  UNL1        0.1269
      2 O          60.6554   86.7467   11.8772 O.3     1  UNL1       -0.3830
      3 H          59.8044   86.9841   12.2775 H       1  UNL1        0.2104
      4 C          59.4737   87.8659    9.8521 C.3     1  UNL1        0.1021
      5 C          60.4502   89.9440    8.6364 C.3     1  UNL1        0.1510
      6 C          60.5967   90.7731    7.3950 C.3     1  UNL1        0.0980
      7 N          59.9129   90.3531    6.1277 N.3     1  UNL1       -0.2663
      8 C          59.0827   89.1040    6.1018 C.3     1  UNL1        0.0899
      9 C          58.9363   88.2750    7.3433 C.3     1  UNL1        0.0901
     10 N          59.6201   88.6950    8.6106 N.3     1  UNL1       -0.2621
     11 N          62.6268   90.2698   10.0172 N.am    1  UNL1       -0.3063
     12 C          61.1340   90.3640    9.9037 C.2     1  UNL1        0.2383
     13 O          60.3251   90.8781   11.0575 O.2     1  UNL1       -0.2736
     14 H          63.1577   89.9323    9.2600 H       1  UNL1        0.1493
     15 C          62.7800   89.4687   11.9754 C.3     1  UNL1        0.0196
     16 C          63.3105   90.6898   11.2845 C.3     1  UNL1        0.0569
     17 C          63.8411   91.9109   10.5936 C.3     1  UNL1        0.0196
     18 C          63.9943   91.1097   12.5519 C.3     1  UNL1        0.0196
     19 C          60.0593   91.1822    4.8862 C.3     1  UNL1        0.0969
     20 C          58.6102   91.5608    4.9681 C.3     1  UNL1        0.0238
     21 C          61.5084   90.8036    4.8043 C.3     1  UNL1        0.0238
     22 C          60.2057   92.0112    3.6448 C.ar    1  UNL1        0.1356
     23 C          61.4925   92.3244    2.9403 C.ar    1  UNL1        0.0388
     24 C          61.1731   93.1794    1.7499 C.ar    1  UNL1        0.0564
     25 C          62.0419   93.7897    0.6905 C.ar    1  UNL1        0.1020
     26 N          61.4267   94.6153   -0.4003 N.ar    1  UNL1       -0.2421
     27 C          59.9425   94.8306   -0.4315 C.ar    1  UNL1        0.1020
     28 C          59.0737   94.2202    0.6279 C.ar    1  UNL1        0.0581
     29 C          59.6889   93.3947    1.7187 C.ar    1  UNL1        0.1479
     30 O          59.0911   92.6727    2.8897 O.2     1  UNL1       -0.4564
     31 C          61.8822   86.9265    9.5941 C.3     1  UNL1        0.0401
     32 C          62.6681   85.6609    9.7686 C.3     1  UNL1        0.0833
     33 C          62.7302   84.9958   11.1117 C.2     1  UNL1        0.2226
     34 O          61.8665   83.8034   11.3987 O.2     1  UNL1       -0.2751
     35 N          63.6560   85.5229   12.1676 N.am    1  UNL1       -0.2999
     36 H          64.2228   86.3055   11.9792 H       1  UNL1        0.1498
     37 C          63.7180   84.8578   13.5106 C.3     1  UNL1        0.1278
     38 C          63.5781   85.6761   14.7600 C.ar    1  UNL1        0.0320
     39 C          63.3762   87.1595   14.6663 C.ar    1  UNL1        0.0004
     40 C          63.2363   87.9777   15.9156 C.ar    1  UNL1       -0.0001
     41 C          63.2983   87.3126   17.2587 C.ar    1  UNL1        0.0031
     42 C          63.5003   85.8292   17.3524 C.ar    1  UNL1        0.0366
     43 C          63.6402   85.0110   16.1031 C.ar    1  UNL1        0.1362
     44 O          63.8422   83.5276   16.1967 O.3     1  UNL1       -0.4730
     45 C          63.9821   82.7093   14.9474 C.3     1  UNL1        0.2364
     46 C          63.9200   83.3745   13.6043 C.3     1  UNL1        0.1762
     47 O          64.0599   82.5561   12.3550 O.3     1  UNL1       -0.3788
     48 H          64.1830   81.6235   12.5914 H       1  UNL1        0.2106
     49 C          63.3921   85.0603    8.6001 C.3     1  UNL1        0.0355
     50 C          62.6502   84.7619    7.3311 C.ar    1  UNL1       -0.0217
     51 C          63.4083   84.4661    6.0710 C.ar    1  UNL1       -0.0043
     52 C          62.6664   84.1676    4.8019 C.ar    1  UNL1       -0.0003
     53 C          61.1664   84.1650    4.7929 C.ar    1  UNL1       -0.0000
     54 C          60.4083   84.4609    6.0530 C.ar    1  UNL1       -0.0003
     55 C          61.1502   84.7593    7.3221 C.ar    1  UNL1       -0.0043
@<TRIPOS>BOND
     1    15    16    1
     2    16    17    1
     3    16    18    1
     4    16    11    1
     5    11    12   am
     6    12    13    2
     7     5    12    1
     8     5     6    1
     9     6     7    1
    10     7    19    1
    11    19    20    1
    12    19    21    1
    13    19    22    1
    14    22    23   ar
    15    23    24   ar
    16    24    25   ar
    17    25    26   ar
    18    26    27   ar
    19    27    28   ar
    20    28    29   ar
    21    29    30   ar
    22     7     8    1
    23     8     9    1
    24     9    10    1
    25    10     4    1
    26     4     1    1
    27     1     2    1
    28     1    31    1
    29    32    31    1
    30    32    49    1
    31    49    50    1
    32    50    51   ar
    33    51    52   ar
    34    52    53   ar
    35    53    54   ar
    36    54    55   ar
    37    32    33    1
    38    33    34    2
    39    33    35   am
    40    37    35    1
    41    37    38    1
    42    38    39   ar
    43    39    40   ar
    44    40    41   ar
    45    41    42   ar
    46    42    43   ar
    47    43    44    1
    48    44    45    1
    49    45    46    1
    50    46    47    1
    51    10     5    1
    52    55    50   ar
    53    46    37    1
    54    30    22   ar
    55    43    38   ar
    56    29    24   ar
    57    11    14    1
    58     2     3    1
    59    35    36    1
    60    47    48    1
