@<TRIPOS>MOLECULE
*****
 29 32 0 0 0
SMALL
GASTEIGER

@<TRIPOS>ATOM
      1 C          59.0660   88.4941    7.4287 C.3     1  UNL1        0.0518
      2 C          60.0502   88.4471    8.5598 C.ar    1  UNL1        0.0563
      3 N          60.4556   89.7133    9.2542 N.ar    1  UNL1       -0.2524
      4 C          61.4397   89.6664   10.3853 C.ar    1  UNL1        0.0830
      5 C          62.0184   88.3532   10.8219 C.ar    1  UNL1        0.0686
      6 C          61.6130   87.0870   10.1275 C.ar    1  UNL1        0.0048
      7 C          60.6289   87.1340    8.9964 C.ar    1  UNL1        0.0072
      8 C          62.9602   88.6169   11.9592 C.2     1  UNL1        0.2509
      9 O          63.7585   87.5855   12.7001 O.2     1  UNL1       -0.2698
     10 N          62.9636   90.0930   12.2255 N.am    1  UNL1       -0.2618
     11 C          62.0239   90.7417   11.2528 C.3     1  UNL1        0.1401
     12 C          62.1917   85.7737   10.5640 C.ar    1  UNL1        0.0106
     13 C          61.8326   85.2045   11.9045 C.ar    1  UNL1        0.0017
     14 C          62.4112   83.8913   12.3412 C.ar    1  UNL1        0.0114
     15 C          63.3490   83.1473   11.4372 C.ar    1  UNL1        0.0585
     16 CL         63.9276   81.8341   11.8739 Cl      1  UNL1       -0.0822
     17 C          63.7081   83.7165   10.0967 C.ar    1  UNL1        0.0228
     18 C          63.1295   85.0298    9.6601 C.ar    1  UNL1        0.0585
     19 CL         63.4886   85.5990    8.3196 Cl      1  UNL1       -0.0822
     20 C          60.2234   85.8677    8.3019 C.3     1  UNL1        0.0934
     21 N          60.6640   85.6120    6.8910 N.3     1  UNL1       -0.3174
     22 H          60.2287   86.2941    6.2700 H       1  UNL1        0.1192
     23 H          60.3840   84.6715    6.6126 H       1  UNL1        0.1192
     24 C          63.7658   90.7970   13.2795 C.3     1  UNL1        0.1799
     25 C          64.7434   91.8656   12.8890 C.ar    1  UNL1        0.2262
     26 N          65.5984   92.6640   13.8279 N.ar    1  UNL1       -0.2089
     27 C          66.4210   93.6153   13.0104 C.ar    1  UNL1        0.1424
     28 C          66.0745   93.4048   11.5662 C.ar    1  UNL1        0.2018
     29 O          65.0376   92.3234   11.4912 O.2     1  UNL1       -0.4334
@<TRIPOS>BOND
     1     1     2    1
     2     2     3   ar
     3     3     4   ar
     4     4     5   ar
     5     5     6   ar
     6     6    12    1
     7    12    13   ar
     8    13    14   ar
     9    14    15   ar
    10    15    16    1
    11    15    17   ar
    12    17    18   ar
    13    18    19    1
    14     6     7   ar
    15     7    20    1
    16    20    21    1
    17     5     8    1
    18     8     9    2
    19     8    10   am
    20    10    24    1
    21    24    25    1
    22    25    26   ar
    23    26    27   ar
    24    27    28   ar
    25    28    29   ar
    26    10    11    1
    27     7     2   ar
    28    29    25   ar
    29    11     4    1
    30    18    12   ar
    31    21    22    1
    32    21    23    1
@<TRIPOS>MOLECULE
*****
 29 32 0 0 0
SMALL
GASTEIGER

@<TRIPOS>ATOM
      1 C          64.2378   91.5808   13.3655 C.3     1  UNL1        0.0518
      2 C          63.9416   90.1164   13.2308 C.ar    1  UNL1        0.0563
      3 N          64.4911   89.1449   14.2329 N.ar    1  UNL1       -0.2524
      4 C          64.1951   87.6806   14.0983 C.ar    1  UNL1        0.0830
      5 C          63.3495   87.1878   12.9616 C.ar    1  UNL1        0.0686
      6 C          62.8000   88.1593   11.9595 C.ar    1  UNL1        0.0048
      7 C          63.0961   89.6236   12.0942 C.ar    1  UNL1        0.0072
      8 C          63.2273   85.6980   13.0867 C.2     1  UNL1        0.2509
      9 O          62.4683   84.7948   12.1604 O.2     1  UNL1       -0.2698
     10 N          63.9974   85.2701   14.3007 N.am    1  UNL1       -0.2618
     11 C          64.5955   86.4954   14.9259 C.3     1  UNL1        0.1401
     12 C          61.9544   87.6665   10.8227 C.ar    1  UNL1        0.0106
     13 C          62.5929   86.9561    9.6661 C.ar    1  UNL1        0.0017
     14 C          61.7473   86.4634    8.5293 C.ar    1  UNL1        0.0114
     15 C          60.2634   86.6810    8.5492 C.ar    1  UNL1        0.0585
     16 CL         59.4179   86.1882    7.4124 Cl      1  UNL1       -0.0822
     17 C          59.6249   87.3913    9.7058 C.ar    1  UNL1        0.0228
     18 C          60.4704   87.8841   10.8426 C.ar    1  UNL1        0.0585
     19 CL         59.8319   88.5945   11.9992 Cl      1  UNL1       -0.0822
     20 C          62.5466   90.5952   11.0920 C.3     1  UNL1        0.0934
     21 N          63.4515   91.2010   10.0604 N.3     1  UNL1       -0.3174
     22 H          64.1380   91.7995   10.5197 H       1  UNL1        0.1192
     23 H          62.8989   91.7565    9.4074 H       1  UNL1        0.1192
     24 C          64.1437   83.8638   14.8016 C.3     1  UNL1        0.1799
     25 C          63.4029   82.7469   14.1280 C.ar    1  UNL1        0.2262
     26 N          62.0266   82.2643   14.4785 N.ar    1  UNL1       -0.2089
     27 C          61.6814   81.1356   13.5529 C.ar    1  UNL1        0.1424
     28 C          62.8444   80.9205   12.6303 C.ar    1  UNL1        0.2018
     29 O          63.9084   81.9164   12.9857 O.2     1  UNL1       -0.4334
@<TRIPOS>BOND
     1     1     2    1
     2     2     3   ar
     3     3     4   ar
     4     4     5   ar
     5     5     6   ar
     6     6    12    1
     7    12    13   ar
     8    13    14   ar
     9    14    15   ar
    10    15    16    1
    11    15    17   ar
    12    17    18   ar
    13    18    19    1
    14     6     7   ar
    15     7    20    1
    16    20    21    1
    17     5     8    1
    18     8     9    2
    19     8    10   am
    20    10    24    1
    21    24    25    1
    22    25    26   ar
    23    26    27   ar
    24    27    28   ar
    25    28    29   ar
    26    10    11    1
    27     7     2   ar
    28    29    25   ar
    29    11     4    1
    30    18    12   ar
    31    21    22    1
    32    21    23    1
@<TRIPOS>MOLECULE
*****
 29 32 0 0 0
SMALL
GASTEIGER

@<TRIPOS>ATOM
      1 C          58.9605   88.3438    7.2249 C.3     1  UNL1        0.0518
      2 C          59.9515   88.3587    8.3509 C.ar    1  UNL1        0.0563
      3 N          60.3398   89.6586    8.9909 N.ar    1  UNL1       -0.2524
      4 C          61.3306   89.6736   10.1170 C.ar    1  UNL1        0.0830
      5 C          61.9332   88.3888   10.6030 C.ar    1  UNL1        0.0686
      6 C          61.5449   87.0890    9.9630 C.ar    1  UNL1        0.0048
      7 C          60.5540   87.0740    8.8369 C.ar    1  UNL1        0.0072
      8 C          62.8767   88.7137   11.7229 C.2     1  UNL1        0.2509
      9 O          63.6958   87.7264   12.5002 O.2     1  UNL1       -0.2698
     10 N          62.8573   90.1994   11.9290 N.am    1  UNL1       -0.2618
     11 C          61.9017   90.7926   10.9365 C.3     1  UNL1        0.1401
     12 C          62.1474   85.8041   10.4490 C.ar    1  UNL1        0.0106
     13 C          61.8078   85.2861   11.8151 C.ar    1  UNL1        0.0017
     14 C          62.4103   84.0012   12.3011 C.ar    1  UNL1        0.0114
     15 C          63.3523   83.2345   11.4210 C.ar    1  UNL1        0.0585
     16 CL         63.9548   81.9497   11.9070 Cl      1  UNL1       -0.0822
     17 C          63.6919   83.7526   10.0549 C.ar    1  UNL1        0.0228
     18 C          63.0894   85.0374    9.5688 C.ar    1  UNL1        0.0585
     19 CL         63.4290   85.5555    8.2027 Cl      1  UNL1       -0.0822
     20 C          60.1656   85.7741    8.1969 C.3     1  UNL1        0.0934
     21 N          60.6465   85.4455    6.8146 N.3     1  UNL1       -0.3174
     22 H          60.2315   86.0953    6.1468 H       1  UNL1        0.1192
     23 H          60.3724   84.4923    6.5768 H       1  UNL1        0.1192
     24 C          63.6535   90.9585   12.9486 C.3     1  UNL1        0.1799
     25 C          63.5396   90.6074   14.4025 C.ar    1  UNL1        0.2262
     26 N          63.8239   91.5235   15.5556 N.ar    1  UNL1       -0.2089
     27 C          63.5813   90.7608   16.8242 C.ar    1  UNL1        0.1424
     28 C          63.1471   89.3733   16.4552 C.ar    1  UNL1        0.2018
     29 O          63.1213   89.2784   14.9583 O.2     1  UNL1       -0.4334
@<TRIPOS>BOND
     1     1     2    1
     2     2     3   ar
     3     3     4   ar
     4     4     5   ar
     5     5     6   ar
     6     6    12    1
     7    12    13   ar
     8    13    14   ar
     9    14    15   ar
    10    15    16    1
    11    15    17   ar
    12    17    18   ar
    13    18    19    1
    14     6     7   ar
    15     7    20    1
    16    20    21    1
    17     5     8    1
    18     8     9    2
    19     8    10   am
    20    10    24    1
    21    24    25    1
    22    25    26   ar
    23    26    27   ar
    24    27    28   ar
    25    28    29   ar
    26    10    11    1
    27     7     2   ar
    28    29    25   ar
    29    11     4    1
    30    18    12   ar
    31    21    22    1
    32    21    23    1
@<TRIPOS>MOLECULE
*****
 29 32 0 0 0
SMALL
GASTEIGER

@<TRIPOS>ATOM
      1 C          66.9774   93.2754   12.7760 C.3     1  UNL1        0.0518
      2 C          65.8254   92.3333   12.5872 C.ar    1  UNL1        0.0563
      3 N          64.9903   92.4095   11.3436 N.ar    1  UNL1       -0.2524
      4 C          63.8384   91.4675   11.1548 C.ar    1  UNL1        0.0830
      5 C          63.5216   90.4492   12.2097 C.ar    1  UNL1        0.0686
      6 C          64.3568   90.3729   13.4533 C.ar    1  UNL1        0.0048
      7 C          65.5087   91.3150   13.6420 C.ar    1  UNL1        0.0072
      8 C          62.3326   89.6591   11.7491 C.2     1  UNL1        0.2509
      9 O          61.6769   88.5362   12.4968 O.2     1  UNL1       -0.2698
     10 N          61.9146   90.1891   10.4096 N.am    1  UNL1       -0.2618
     11 C          62.8451   91.3068   10.0423 C.3     1  UNL1        0.1401
     12 C          64.0401   89.3546   14.5082 C.ar    1  UNL1        0.0106
     13 C          64.3351   87.9044   14.2633 C.ar    1  UNL1        0.0017
     14 C          64.0185   86.8861   15.3182 C.ar    1  UNL1        0.0114
     15 C          63.4068   87.3180   16.6179 C.ar    1  UNL1        0.0585
     16 CL         63.0901   86.2996   17.6727 Cl      1  UNL1       -0.0822
     17 C          63.1117   88.7681   16.8628 C.ar    1  UNL1        0.0228
     18 C          63.4284   89.7865   15.8079 C.ar    1  UNL1        0.0585
     19 CL         63.1333   91.2366   16.0528 Cl      1  UNL1       -0.0822
     20 C          66.3439   91.2387   14.8858 C.3     1  UNL1        0.0934
     21 N          66.3238   92.3678   15.8731 N.3     1  UNL1       -0.3174
     22 H          66.7295   93.2004   15.4459 H       1  UNL1        0.1192
     23 H          66.8672   92.1090   16.6966 H       1  UNL1        0.1192
     24 C          60.7673   89.6893    9.5826 C.3     1  UNL1        0.1799
     25 C          60.7816   88.2871    9.0499 C.ar    1  UNL1        0.2262
     26 N          59.7404   87.6700    8.1639 N.ar    1  UNL1       -0.2089
     27 C          60.1549   86.2574    7.8761 C.ar    1  UNL1        0.1424
     28 C          61.4521   86.0014    8.5843 C.ar    1  UNL1        0.2018
     29 O          61.8395   87.2559    9.3098 O.2     1  UNL1       -0.4334
@<TRIPOS>BOND
     1     1     2    1
     2     2     3   ar
     3     3     4   ar
     4     4     5   ar
     5     5     6   ar
     6     6    12    1
     7    12    13   ar
     8    13    14   ar
     9    14    15   ar
    10    15    16    1
    11    15    17   ar
    12    17    18   ar
    13    18    19    1
    14     6     7   ar
    15     7    20    1
    16    20    21    1
    17     5     8    1
    18     8     9    2
    19     8    10   am
    20    10    24    1
    21    24    25    1
    22    25    26   ar
    23    26    27   ar
    24    27    28   ar
    25    28    29   ar
    26    10    11    1
    27     7     2   ar
    28    29    25   ar
    29    11     4    1
    30    18    12   ar
    31    21    22    1
    32    21    23    1
@<TRIPOS>MOLECULE
*****
 29 32 0 0 0
SMALL
GASTEIGER

@<TRIPOS>ATOM
      1 C          63.8520   83.7518   14.9078 C.3     1  UNL1        0.0518
      2 C          63.6827   85.0536   14.1819 C.ar    1  UNL1        0.0563
      3 N          64.2415   86.3167   14.7670 N.ar    1  UNL1       -0.2524
      4 C          64.0723   87.6184   14.0411 C.ar    1  UNL1        0.0830
      5 C          63.3443   87.6570   12.7302 C.ar    1  UNL1        0.0686
      6 C          62.7855   86.3940   12.1451 C.ar    1  UNL1        0.0048
      7 C          62.9547   85.0922   12.8711 C.ar    1  UNL1        0.0072
      8 C          63.3332   89.0773   12.2477 C.2     1  UNL1        0.2509
      9 O          62.7103   89.5716   10.9759 O.2     1  UNL1       -0.2698
     10 N          64.0544   89.9164   13.2605 N.am    1  UNL1       -0.2618
     11 C          64.5112   89.0148   14.3689 C.3     1  UNL1        0.1401
     12 C          62.0574   86.4325   10.8342 C.ar    1  UNL1        0.0106
     13 C          62.6538   85.7741    9.6255 C.ar    1  UNL1        0.0017
     14 C          61.9258   85.8126    8.3146 C.ar    1  UNL1        0.0114
     15 C          60.6015   86.5095    8.2124 C.ar    1  UNL1        0.0585
     16 CL         59.8735   86.5480    6.9014 Cl      1  UNL1       -0.0822
     17 C          60.0051   87.1679    9.4210 C.ar    1  UNL1        0.0228
     18 C          60.7331   87.1294   10.7320 C.ar    1  UNL1        0.0585
     19 CL         60.1367   87.7877   11.9407 Cl      1  UNL1       -0.0822
     20 C          62.3959   83.8290   12.2860 C.3     1  UNL1        0.0934
     21 N          63.2932   82.8874   11.5389 N.3     1  UNL1       -0.3174
     22 H          63.6248   83.3384   10.6862 H       1  UNL1        0.1192
     23 H          62.7744   82.0431   11.2973 H       1  UNL1        0.1192
     24 C          64.2794   91.3972   13.1792 C.3     1  UNL1        0.1799
     25 C          65.4895   92.0084   13.8212 C.ar    1  UNL1        0.2262
     26 N          66.8792   92.0134   13.2568 N.ar    1  UNL1       -0.2089
     27 C          67.7709   92.7299   14.2270 C.ar    1  UNL1        0.1424
     28 C          66.9324   93.1677   15.3911 C.ar    1  UNL1        0.2018
     29 O          65.5223   92.7218   15.1403 O.2     1  UNL1       -0.4334
@<TRIPOS>BOND
     1     1     2    1
     2     2     3   ar
     3     3     4   ar
     4     4     5   ar
     5     5     6   ar
     6     6    12    1
     7    12    13   ar
     8    13    14   ar
     9    14    15   ar
    10    15    16    1
    11    15    17   ar
    12    17    18   ar
    13    18    19    1
    14     6     7   ar
    15     7    20    1
    16    20    21    1
    17     5     8    1
    18     8     9    2
    19     8    10   am
    20    10    24    1
    21    24    25    1
    22    25    26   ar
    23    26    27   ar
    24    27    28   ar
    25    28    29   ar
    26    10    11    1
    27     7     2   ar
    28    29    25   ar
    29    11     4    1
    30    18    12   ar
    31    21    22    1
    32    21    23    1
@<TRIPOS>MOLECULE
*****
 29 32 0 0 0
SMALL
GASTEIGER

@<TRIPOS>ATOM
      1 C          60.8425   89.2850    9.2363 C.3     1  UNL1        0.0518
      2 C          61.6325   88.7109   10.3750 C.ar    1  UNL1        0.0563
      3 N          61.6760   87.2262   10.5841 N.ar    1  UNL1       -0.2524
      4 C          62.4659   86.6520   11.7227 C.ar    1  UNL1        0.0830
      5 C          63.2122   87.5626   12.6522 C.ar    1  UNL1        0.0686
      6 C          63.1687   89.0473   12.4430 C.ar    1  UNL1        0.0048
      7 C          62.3787   89.6214   11.3044 C.ar    1  UNL1        0.0072
      8 C          63.9005   86.7135   13.6795 C.2     1  UNL1        0.2509
      9 O          64.7590   87.2122   14.8039 O.2     1  UNL1       -0.2698
     10 N          63.5795   85.2782   13.3849 N.am    1  UNL1       -0.2618
     11 C          62.6929   85.2401   12.1756 C.3     1  UNL1        0.1401
     12 C          63.9150   89.9579   13.3725 C.ar    1  UNL1        0.0106
     13 C          65.1513   90.6632   12.8991 C.ar    1  UNL1        0.0017
     14 C          65.8977   91.5738   13.8284 C.ar    1  UNL1        0.0114
     15 C          65.4076   91.7791   15.2311 C.ar    1  UNL1        0.0585
     16 CL         66.1540   92.6898   16.1605 Cl      1  UNL1       -0.0822
     17 C          64.1713   91.0739   15.7045 C.ar    1  UNL1        0.0228
     18 C          63.4249   90.1633   14.7752 C.ar    1  UNL1        0.0585
     19 CL         62.1886   89.4580   15.2486 Cl      1  UNL1       -0.0822
     20 C          62.3352   91.1062   11.0952 C.3     1  UNL1        0.0934
     21 N          63.1498   91.7340   10.0033 N.3     1  UNL1       -0.3174
     22 H          64.1419   91.6198   10.2108 H       1  UNL1        0.1192
     23 H          62.9274   92.7275    9.9415 H       1  UNL1        0.1192
     24 C          64.0607   84.0895   14.1630 C.3     1  UNL1        0.1799
     25 C          63.3533   82.7730   14.0352 C.ar    1  UNL1        0.2262
     26 N          63.8939   81.5427   13.3688 N.ar    1  UNL1       -0.2089
     27 C          62.8558   80.4650   13.4730 C.ar    1  UNL1        0.1424
     28 C          61.6736   81.0291   14.2038 C.ar    1  UNL1        0.2018
     29 O          61.9810   82.4556   14.5513 O.2     1  UNL1       -0.4334
@<TRIPOS>BOND
     1     1     2    1
     2     2     3   ar
     3     3     4   ar
     4     4     5   ar
     5     5     6   ar
     6     6    12    1
     7    12    13   ar
     8    13    14   ar
     9    14    15   ar
    10    15    16    1
    11    15    17   ar
    12    17    18   ar
    13    18    19    1
    14     6     7   ar
    15     7    20    1
    16    20    21    1
    17     5     8    1
    18     8     9    2
    19     8    10   am
    20    10    24    1
    21    24    25    1
    22    25    26   ar
    23    26    27   ar
    24    27    28   ar
    25    28    29   ar
    26    10    11    1
    27     7     2   ar
    28    29    25   ar
    29    11     4    1
    30    18    12   ar
    31    21    22    1
    32    21    23    1
@<TRIPOS>MOLECULE
*****
 29 32 0 0 0
SMALL
GASTEIGER

@<TRIPOS>ATOM
      1 C          64.0599   83.4371   14.4429 C.3     1  UNL1        0.0518
      2 C          63.7906   84.7920   13.8581 C.ar    1  UNL1        0.0563
      3 N          64.3679   86.0161   14.5049 N.ar    1  UNL1       -0.2524
      4 C          64.0987   87.3710   13.9202 C.ar    1  UNL1        0.0830
      5 C          63.2523   87.5017   12.6887 C.ar    1  UNL1        0.0686
      6 C          62.6750   86.2776   12.0420 C.ar    1  UNL1        0.0048
      7 C          62.9443   84.9227   12.6267 C.ar    1  UNL1        0.0072
      8 C          63.1598   88.9582   12.3423 C.2     1  UNL1        0.2509
      9 O          62.4098   89.5426   11.1821 O.2     1  UNL1       -0.2698
     10 N          63.9491   89.7276   13.3596 N.am    1  UNL1       -0.2618
     11 C          64.5294   88.7467   14.3348 C.3     1  UNL1        0.1401
     12 C          61.8286   86.4083   10.8105 C.ar    1  UNL1        0.0106
     13 C          60.5052   87.1108   10.8812 C.ar    1  UNL1        0.0017
     14 C          59.6587   87.2415    9.6498 C.ar    1  UNL1        0.0114
     15 C          60.1357   86.6696    8.3477 C.ar    1  UNL1        0.0585
     16 CL         59.2892   86.8003    7.1163 Cl      1  UNL1       -0.0822
     17 C          61.4591   85.9671    8.2770 C.ar    1  UNL1        0.0228
     18 C          62.3056   85.8364    9.5084 C.ar    1  UNL1        0.0585
     19 CL         63.6290   85.1339    9.4377 Cl      1  UNL1       -0.0822
     20 C          62.3670   83.6985   11.9799 C.3     1  UNL1        0.0934
     21 N          63.2773   82.6364   11.4383 N.3     1  UNL1       -0.3174
     22 H          63.8070   83.0115   10.6515 H       1  UNL1        0.1192
     23 H          62.7222   81.8399   11.1256 H       1  UNL1        0.1192
     24 C          64.1269   91.2166   13.3954 C.3     1  UNL1        0.1799
     25 C          65.0553   91.8847   12.4249 C.ar    1  UNL1        0.2262
     26 N          64.7050   92.3364   11.0382 N.ar    1  UNL1       -0.2089
     27 C          65.9301   92.9492   10.4270 C.ar    1  UNL1        0.1424
     28 C          67.0376   92.8762   11.4359 C.ar    1  UNL1        0.2018
     29 O          66.4969   92.2182   12.6708 O.2     1  UNL1       -0.4334
@<TRIPOS>BOND
     1     1     2    1
     2     2     3   ar
     3     3     4   ar
     4     4     5   ar
     5     5     6   ar
     6     6    12    1
     7    12    13   ar
     8    13    14   ar
     9    14    15   ar
    10    15    16    1
    11    15    17   ar
    12    17    18   ar
    13    18    19    1
    14     6     7   ar
    15     7    20    1
    16    20    21    1
    17     5     8    1
    18     8     9    2
    19     8    10   am
    20    10    24    1
    21    24    25    1
    22    25    26   ar
    23    26    27   ar
    24    27    28   ar
    25    28    29   ar
    26    10    11    1
    27     7     2   ar
    28    29    25   ar
    29    11     4    1
    30    18    12   ar
    31    21    22    1
    32    21    23    1
@<TRIPOS>MOLECULE
*****
 29 32 0 0 0
SMALL
GASTEIGER

@<TRIPOS>ATOM
      1 C          64.7346   89.3115   14.8942 C.3     1  UNL1        0.0518
      2 C          64.0596   88.4102   13.9032 C.ar    1  UNL1        0.0563
      3 N          63.3647   88.9951   12.7095 N.ar    1  UNL1       -0.2524
      4 C          62.6897   88.0939   11.7185 C.ar    1  UNL1        0.0830
      5 C          62.7096   86.6078   11.9212 C.ar    1  UNL1        0.0686
      6 C          63.4045   86.0229   13.1149 C.ar    1  UNL1        0.0048
      7 C          64.0795   86.9242   14.1059 C.ar    1  UNL1        0.0072
      8 C          61.9635   85.9748   10.7842 C.2     1  UNL1        0.2509
      9 O          61.7380   84.5050   10.5872 O.2     1  UNL1       -0.2698
     10 N          61.4825   87.0697    9.8788 N.am    1  UNL1       -0.2618
     11 C          61.9313   88.3794   10.4562 C.3     1  UNL1        0.1401
     12 C          63.4244   84.5367   13.3177 C.ar    1  UNL1        0.0106
     13 C          64.3446   83.6804   12.4992 C.ar    1  UNL1        0.0017
     14 C          64.3646   82.1943   12.7019 C.ar    1  UNL1        0.0114
     15 C          63.4643   81.5646   13.7231 C.ar    1  UNL1        0.0585
     16 CL         63.4843   80.0785   13.9258 Cl      1  UNL1       -0.0822
     17 C          62.5441   82.4209   14.5416 C.ar    1  UNL1        0.0228
     18 C          62.5241   83.9070   14.3389 C.ar    1  UNL1        0.0585
     19 CL         61.6039   84.7633   15.1574 Cl      1  UNL1       -0.0822
     20 C          64.7744   86.3393   15.2997 C.3     1  UNL1        0.0934
     21 N          66.0701   85.6034   15.1274 N.3     1  UNL1       -0.3174
     22 H          65.9086   84.7519   14.5897 H       1  UNL1        0.1192
     23 H          66.4478   85.3608   16.0433 H       1  UNL1        0.1192
     24 C          60.6916   86.8871    8.6174 C.3     1  UNL1        0.1799
     25 C          61.1027   85.8464    7.6184 C.ar    1  UNL1        0.2262
     26 N          62.5025   85.3696    7.3674 N.ar    1  UNL1       -0.2089
     27 C          62.4511   84.3283    6.2890 C.ar    1  UNL1        0.1424
     28 C          61.0195   84.1615    5.8734 C.ar    1  UNL1        0.2018
     29 O          60.1861   85.0998    6.6951 O.2     1  UNL1       -0.4334
@<TRIPOS>BOND
     1     1     2    1
     2     2     3   ar
     3     3     4   ar
     4     4     5   ar
     5     5     6   ar
     6     6    12    1
     7    12    13   ar
     8    13    14   ar
     9    14    15   ar
    10    15    16    1
    11    15    17   ar
    12    17    18   ar
    13    18    19    1
    14     6     7   ar
    15     7    20    1
    16    20    21    1
    17     5     8    1
    18     8     9    2
    19     8    10   am
    20    10    24    1
    21    24    25    1
    22    25    26   ar
    23    26    27   ar
    24    27    28   ar
    25    28    29   ar
    26    10    11    1
    27     7     2   ar
    28    29    25   ar
    29    11     4    1
    30    18    12   ar
    31    21    22    1
    32    21    23    1
@<TRIPOS>MOLECULE
*****
 29 32 0 0 0
SMALL
GASTEIGER

@<TRIPOS>ATOM
      1 C          63.1053   80.1394   11.5368 C.3     1  UNL1        0.0518
      2 C          62.9994   81.6346   11.5952 C.ar    1  UNL1        0.0563
      3 N          62.8968   82.4292   10.3271 N.ar    1  UNL1       -0.2524
      4 C          62.7909   83.9243   10.3853 C.ar    1  UNL1        0.0830
      5 C          62.7878   84.6248   11.7117 C.ar    1  UNL1        0.0686
      6 C          62.8904   83.8303   12.9798 C.ar    1  UNL1        0.0048
      7 C          62.9963   82.3351   12.9214 C.ar    1  UNL1        0.0072
      8 C          62.6723   86.0986   11.4573 C.2     1  UNL1        0.2509
      9 O          62.6321   87.1733   12.5029 O.2     1  UNL1       -0.2698
     10 N          62.6041   86.3088    9.9736 N.am    1  UNL1       -0.2618
     11 C          62.6774   84.9651    9.3111 C.3     1  UNL1        0.1401
     12 C          62.8872   84.5308   14.3062 C.ar    1  UNL1        0.0106
     13 C          61.5988   84.7228   15.0498 C.ar    1  UNL1        0.0017
     14 C          61.5955   85.4232   16.3762 C.ar    1  UNL1        0.0114
     15 C          62.8807   85.9316   16.9589 C.ar    1  UNL1        0.0585
     16 CL         62.8775   86.6321   18.2853 Cl      1  UNL1       -0.0822
     17 C          64.1692   85.7396   16.2153 C.ar    1  UNL1        0.0228
     18 C          64.1725   85.0392   14.8889 C.ar    1  UNL1        0.0585
     19 CL         65.4610   84.8471   14.1454 Cl      1  UNL1       -0.0822
     20 C          63.0989   81.5405   14.1896 C.3     1  UNL1        0.0934
     21 N          61.8544   81.0823   14.8904 N.3     1  UNL1       -0.3174
     22 H          61.3419   81.8929   15.2379 H       1  UNL1        0.1192
     23 H          62.1074   80.4789   15.6730 H       1  UNL1        0.1192
     24 C          62.4837   87.6308    9.2751 C.3     1  UNL1        0.1799
     25 C          61.7512   88.7626    9.9327 C.ar    1  UNL1        0.2262
     26 N          62.3744   89.9980   10.5117 N.ar    1  UNL1       -0.2089
     27 C          61.2753   90.8566   11.0636 C.ar    1  UNL1        0.1424
     28 C          59.9727   90.1519   10.8257 C.ar    1  UNL1        0.2018
     29 O          60.2668   88.8577   10.1267 O.2     1  UNL1       -0.4334
@<TRIPOS>BOND
     1     1     2    1
     2     2     3   ar
     3     3     4   ar
     4     4     5   ar
     5     5     6   ar
     6     6    12    1
     7    12    13   ar
     8    13    14   ar
     9    14    15   ar
    10    15    16    1
    11    15    17   ar
    12    17    18   ar
    13    18    19    1
    14     6     7   ar
    15     7    20    1
    16    20    21    1
    17     5     8    1
    18     8     9    2
    19     8    10   am
    20    10    24    1
    21    24    25    1
    22    25    26   ar
    23    26    27   ar
    24    27    28   ar
    25    28    29   ar
    26    10    11    1
    27     7     2   ar
    28    29    25   ar
    29    11     4    1
    30    18    12   ar
    31    21    22    1
    32    21    23    1
