@<TRIPOS>MOLECULE
*****
 30 35 0 0 0
SMALL
GASTEIGER

@<TRIPOS>ATOM
      1 C          64.3546   87.4023   14.5809 C.3     1  UNL1        0.0009
      2 C          63.7143   87.9581   13.3435 C.3     1  UNL1        0.0197
      3 C          64.3671   88.8810   14.3295 C.3     1  UNL1        0.0492
      4 C          64.3795   90.3598   14.0780 C.3     1  UNL1        0.1942
      5 O          63.7392   90.9156   12.8407 O.3     1  UNL1       -0.4475
      6 C          63.0864   89.9927   11.8548 C.2     1  UNL1        0.3190
      7 O          62.4461   90.5485   10.6174 O.2     1  UNL1       -0.2500
      8 C          63.0739   88.5140   12.1061 C.3     1  UNL1        0.1260
      9 C          62.4212   87.5911   11.1202 C.3     1  UNL1        0.1211
     10 O          61.7808   88.1468    9.8828 O.3     1  UNL1       -0.3839
     11 C          62.4087   86.1123   11.3716 C.3     1  UNL1        0.0328
     12 C          63.0491   85.5565   12.6090 C.3     1  UNL1        0.0407
     13 C          62.3963   84.6336   11.6230 C.3     1  UNL1        0.0032
     14 C          63.7018   86.4794   13.5949 C.3     1  UNL1        0.0463
     15 C          64.3422   85.9236   14.8322 C.3     1  UNL1        0.1983
     16 O          63.9723   85.4575   14.2632 O.3     1  UNL1       -0.4480
     17 C          63.3821   84.6229   13.3716 C.2     1  UNL1        0.3437
     18 O          63.1388   85.1337   12.8461 O.2     1  UNL1       -0.2474
     19 C          63.0366   84.0778   12.8603 C.3     1  UNL1        0.2047
     20 O          62.3838   83.1549   11.8744 O.3     1  UNL1       -0.3746
     21 C          63.6769   83.5219   14.0977 C.3     1  UNL1        0.1806
     22 O          64.3173   82.9662   15.3351 O.3     1  UNL1       -0.3469
     23 C          64.3297   84.4449   15.0837 C.3     1  UNL1        0.1849
     24 H          61.4087   87.4212    9.3576 H       1  UNL1        0.2104
     25 H          62.4641   82.2398   12.1859 H       1  UNL1        0.2110
     26 C          65.0323   91.2827   15.0640 C.ar    1  UNL1        0.0580
     27 C          66.4259   91.8299   14.9706 C.ar    1  UNL1        0.0430
     28 C          66.6609   92.7058   16.1654 C.ar    1  UNL1        0.1795
     29 O          65.4127   92.7001   16.9971 O.2     1  UNL1       -0.4475
     30 C          64.4061   91.8206   16.3165 C.ar    1  UNL1        0.1789
@<TRIPOS>BOND
     1     2     1    1
     2     2     3    1
     3     3     4    1
     4     4    26    1
     5    26    27   ar
     6    27    28   ar
     7    28    29   ar
     8    29    30   ar
     9     4     5    1
    10     5     6    1
    11     6     7    2
    12     8     6    1
    13     8     9    1
    14     9    10    1
    15     9    11    1
    16    11    12    1
    17    12    13    1
    18    12    14    1
    19    14    15    1
    20    15    16    1
    21    16    17    1
    22    17    18    2
    23    17    19    1
    24    19    20    1
    25    19    21    1
    26    21    22    1
    27    23    22    1
    28     8     2    1
    29    19    12    1
    30    23    21    1
    31    14     2    1
    32    23    15    1
    33    30    26   ar
    34    10    24    1
    35    20    25    1
@<TRIPOS>MOLECULE
*****
 30 35 0 0 0
SMALL
GASTEIGER

@<TRIPOS>ATOM
      1 C          61.6582   85.6014   10.8507 C.3     1  UNL1        0.0009
      2 C          62.5287   86.2003   11.9154 C.3     1  UNL1        0.0197
      3 C          62.3159   84.7162   11.8675 C.3     1  UNL1        0.0492
      4 C          62.9737   83.8310   12.8843 C.3     1  UNL1        0.1942
      5 O          63.8441   84.4299   13.9490 O.3     1  UNL1       -0.4475
      6 C          64.0568   85.9139   13.9970 C.2     1  UNL1        0.3190
      7 O          64.9273   86.5128   15.0617 O.2     1  UNL1       -0.2500
      8 C          63.3991   86.7991   12.9802 C.3     1  UNL1        0.1260
      9 C          63.6119   88.2832   13.0282 C.3     1  UNL1        0.1211
     10 O          64.4823   88.8821   14.0929 O.3     1  UNL1       -0.3839
     11 C          62.9541   89.1684   12.0114 C.3     1  UNL1        0.0328
     12 C          62.0837   88.5696   10.9467 C.3     1  UNL1        0.0407
     13 C          62.2965   90.0536   10.9946 C.3     1  UNL1        0.0032
     14 C          61.8710   87.0855   10.8987 C.3     1  UNL1        0.0463
     15 C          61.0005   86.4866    9.8340 C.3     1  UNL1        0.1983
     16 O          61.1467   87.2942    9.9006 O.3     1  UNL1       -0.4480
     17 C          61.3391   88.6361    9.9440 C.2     1  UNL1        0.3437
     18 O          61.8055   88.6879   10.5572 O.2     1  UNL1       -0.2474
     19 C          61.4260   89.4548    9.9299 C.3     1  UNL1        0.2047
     20 O          61.6388   90.9388    9.9779 O.3     1  UNL1       -0.3746
     21 C          60.5555   88.8559    8.8651 C.3     1  UNL1        0.1806
     22 O          59.6851   88.2571    7.8004 O.3     1  UNL1       -0.3469
     23 C          60.3428   87.3719    8.8172 C.3     1  UNL1        0.1849
     24 H          64.5133   89.8451   13.9814 H       1  UNL1        0.2104
     25 H          61.1467   91.3595    9.2555 H       1  UNL1        0.2110
     26 C          62.7609   82.3470   12.8363 C.ar    1  UNL1        0.0580
     27 C          62.2150   81.4982   13.9461 C.ar    1  UNL1        0.0430
     28 C          62.1734   80.0777   13.4658 C.ar    1  UNL1        0.1795
     29 O          62.6937   80.0486   12.0592 O.2     1  UNL1       -0.4475
     30 C          63.0567   81.4511   11.6702 C.ar    1  UNL1        0.1789
@<TRIPOS>BOND
     1     2     1    1
     2     2     3    1
     3     3     4    1
     4     4    26    1
     5    26    27   ar
     6    27    28   ar
     7    28    29   ar
     8    29    30   ar
     9     4     5    1
    10     5     6    1
    11     6     7    2
    12     8     6    1
    13     8     9    1
    14     9    10    1
    15     9    11    1
    16    11    12    1
    17    12    13    1
    18    12    14    1
    19    14    15    1
    20    15    16    1
    21    16    17    1
    22    17    18    2
    23    17    19    1
    24    19    20    1
    25    19    21    1
    26    21    22    1
    27    23    22    1
    28     8     2    1
    29    19    12    1
    30    23    21    1
    31    14     2    1
    32    23    15    1
    33    30    26   ar
    34    10    24    1
    35    20    25    1
@<TRIPOS>MOLECULE
*****
 30 35 0 0 0
SMALL
GASTEIGER

@<TRIPOS>ATOM
      1 C          62.0815   85.2733   11.2517 C.3     1  UNL1        0.0009
      2 C          62.5945   86.5297   11.8907 C.3     1  UNL1        0.0197
      3 C          61.7099   86.6102   10.6820 C.3     1  UNL1        0.0492
      4 C          61.3383   87.9471   10.1122 C.3     1  UNL1        0.1942
      5 O          61.8514   89.2035   10.7512 O.3     1  UNL1       -0.4475
      6 C          62.7360   89.1230   11.9598 C.2     1  UNL1        0.3190
      7 O          63.2491   90.3794   12.5988 O.2     1  UNL1       -0.2500
      8 C          63.1076   87.7861   12.5296 C.3     1  UNL1        0.1260
      9 C          63.9922   87.7056   13.7383 C.3     1  UNL1        0.1211
     10 O          64.5053   88.9620   14.3772 O.3     1  UNL1       -0.3839
     11 C          64.3638   86.3687   14.3080 C.3     1  UNL1        0.0328
     12 C          63.8508   85.1123   13.6691 C.3     1  UNL1        0.0407
     13 C          64.7354   85.0318   14.8778 C.3     1  UNL1        0.0032
     14 C          62.9661   85.1928   12.4604 C.3     1  UNL1        0.0463
     15 C          62.4531   83.9365   11.8215 C.3     1  UNL1        0.1983
     16 O          62.9405   83.9427   12.4850 O.3     1  UNL1       -0.4480
     17 C          63.7404   83.8699   13.5780 C.2     1  UNL1        0.3437
     18 O          63.8626   84.6210   13.7086 O.2     1  UNL1       -0.2474
     19 C          64.2224   83.7754   14.2388 C.3     1  UNL1        0.2047
     20 O          65.1070   83.6949   15.4475 O.3     1  UNL1       -0.3746
     21 C          63.7093   82.5190   13.5999 C.3     1  UNL1        0.1806
     22 O          63.1962   81.2626   12.9610 O.3     1  UNL1       -0.3469
     23 C          62.8247   82.5995   12.3912 C.3     1  UNL1        0.1849
     24 H          65.0581   88.7339   15.1410 H       1  UNL1        0.2104
     25 H          65.2479   82.7647   15.6837 H       1  UNL1        0.2110
     26 C          60.4537   88.0277    8.9035 C.ar    1  UNL1        0.0580
     27 C          60.0558   89.2824    8.1841 C.ar    1  UNL1        0.0430
     28 C          59.1678   88.8977    7.0380 C.ar    1  UNL1        0.1795
     29 O          59.0169   87.4054    7.0490 O.2     1  UNL1       -0.4475
     30 C          59.8116   86.8677    8.2020 C.ar    1  UNL1        0.1789
@<TRIPOS>BOND
     1     2     1    1
     2     2     3    1
     3     3     4    1
     4     4    26    1
     5    26    27   ar
     6    27    28   ar
     7    28    29   ar
     8    29    30   ar
     9     4     5    1
    10     5     6    1
    11     6     7    2
    12     8     6    1
    13     8     9    1
    14     9    10    1
    15     9    11    1
    16    11    12    1
    17    12    13    1
    18    12    14    1
    19    14    15    1
    20    15    16    1
    21    16    17    1
    22    17    18    2
    23    17    19    1
    24    19    20    1
    25    19    21    1
    26    21    22    1
    27    23    22    1
    28     8     2    1
    29    19    12    1
    30    23    21    1
    31    14     2    1
    32    23    15    1
    33    30    26   ar
    34    10    24    1
    35    20    25    1
@<TRIPOS>MOLECULE
*****
 30 35 0 0 0
SMALL
GASTEIGER

@<TRIPOS>ATOM
      1 C          61.6123   85.8334   10.6304 C.3     1  UNL1        0.0009
      2 C          62.1887   87.0212   11.3423 C.3     1  UNL1        0.0197
      3 C          62.4861   85.6355   11.8334 C.3     1  UNL1        0.0492
      4 C          63.3600   85.4376   13.0365 C.3     1  UNL1        0.1942
      5 O          63.9363   86.6254   13.7483 O.3     1  UNL1       -0.4475
      6 C          63.6389   88.0112   13.2572 C.2     1  UNL1        0.3190
      7 O          64.2153   89.1990   13.9690 O.2     1  UNL1       -0.2500
      8 C          62.7651   88.2091   12.0542 C.3     1  UNL1        0.1260
      9 C          62.4676   89.5949   11.5631 C.3     1  UNL1        0.1211
     10 O          63.0440   90.7827   12.2749 O.3     1  UNL1       -0.3839
     11 C          61.5938   89.7927   10.3600 C.3     1  UNL1        0.0328
     12 C          61.0174   88.6049    9.6481 C.3     1  UNL1        0.0407
     13 C          60.7200   89.9907    9.1570 C.3     1  UNL1        0.0032
     14 C          61.3148   87.2192   10.1393 C.3     1  UNL1        0.0463
     15 C          60.7385   86.0313    9.4274 C.3     1  UNL1        0.1983
     16 O          60.6037   86.8097    9.1955 O.3     1  UNL1       -0.4480
     17 C          60.3347   88.0628    8.7514 C.2     1  UNL1        0.3437
     18 O          60.7317   88.4789    9.2666 O.2     1  UNL1       -0.2474
     19 C          60.1436   88.8028    8.4452 C.3     1  UNL1        0.2047
     20 O          59.8462   90.1886    7.9540 O.3     1  UNL1       -0.3746
     21 C          59.5672   87.6149    7.7332 C.3     1  UNL1        0.1806
     22 O          58.9908   86.4271    7.0214 O.3     1  UNL1       -0.3469
     23 C          59.8646   86.2292    8.2244 C.3     1  UNL1        0.1849
     24 H          62.7560   91.5962   11.8320 H       1  UNL1        0.2104
     25 H          59.2716   90.1388    7.1741 H       1  UNL1        0.2110
     26 C          63.6574   84.0519   13.5276 C.ar    1  UNL1        0.0580
     27 C          63.8322   82.8319   12.6724 C.ar    1  UNL1        0.0430
     28 C          64.1151   81.6688   13.5765 C.ar    1  UNL1        0.1795
     29 O          64.1152   82.1699   14.9903 O.2     1  UNL1       -0.4475
     30 C          63.8323   83.6427   14.9601 C.ar    1  UNL1        0.1789
@<TRIPOS>BOND
     1     2     1    1
     2     2     3    1
     3     3     4    1
     4     4    26    1
     5    26    27   ar
     6    27    28   ar
     7    28    29   ar
     8    29    30   ar
     9     4     5    1
    10     5     6    1
    11     6     7    2
    12     8     6    1
    13     8     9    1
    14     9    10    1
    15     9    11    1
    16    11    12    1
    17    12    13    1
    18    12    14    1
    19    14    15    1
    20    15    16    1
    21    16    17    1
    22    17    18    2
    23    17    19    1
    24    19    20    1
    25    19    21    1
    26    21    22    1
    27    23    22    1
    28     8     2    1
    29    19    12    1
    30    23    21    1
    31    14     2    1
    32    23    15    1
    33    30    26   ar
    34    10    24    1
    35    20    25    1
@<TRIPOS>MOLECULE
*****
 30 35 0 0 0
SMALL
GASTEIGER

@<TRIPOS>ATOM
      1 C          62.3910   89.3225   11.5085 C.3     1  UNL1        0.0009
      2 C          62.7742   87.9670   12.0238 C.3     1  UNL1        0.0197
      3 C          63.2518   89.2006   12.7308 C.3     1  UNL1        0.0492
      4 C          64.1127   89.0786   13.9531 C.3     1  UNL1        0.1942
      5 O          64.4959   87.7231   14.4684 O.3     1  UNL1       -0.4475
      6 C          64.0182   86.4894   13.7614 C.2     1  UNL1        0.3190
      7 O          64.4014   85.1338   14.2766 O.2     1  UNL1       -0.2500
      8 C          63.1574   86.6113   12.5391 C.3     1  UNL1        0.1260
      9 C          62.6797   85.3777   11.8320 C.3     1  UNL1        0.1211
     10 O          63.0628   84.0221   12.3473 O.3     1  UNL1       -0.3839
     11 C          61.8188   85.4996   10.6097 C.3     1  UNL1        0.0328
     12 C          61.4357   86.8552   10.0944 C.3     1  UNL1        0.0407
     13 C          60.9580   85.6216    9.3874 C.3     1  UNL1        0.0032
     14 C          61.9133   88.0889   10.8015 C.3     1  UNL1        0.0463
     15 C          61.5302   89.4445   10.2862 C.3     1  UNL1        0.1983
     16 O          61.2926   88.7399    9.9326 O.3     1  UNL1       -0.4480
     17 C          60.8607   87.6244    9.2932 C.2     1  UNL1        0.3437
     18 O          61.1809   87.0795    9.7369 O.2     1  UNL1       -0.2474
     19 C          60.5748   86.9771    8.8721 C.3     1  UNL1        0.2047
     20 O          60.0971   85.7435    8.1651 O.3     1  UNL1       -0.3746
     21 C          60.1916   88.3328    8.3568 C.3     1  UNL1        0.1806
     22 O          59.8085   89.6884    7.8416 O.3     1  UNL1       -0.3469
     23 C          60.6693   89.5664    9.0638 C.3     1  UNL1        0.1849
     24 H          62.6743   83.3386   11.7792 H       1  UNL1        0.2104
     25 H          59.5563   85.9977    7.4011 H       1  UNL1        0.2110
     26 C          64.5904   90.3123   14.6602 C.ar    1  UNL1        0.0580
     27 C          65.8317   91.0896   14.3358 C.ar    1  UNL1        0.0430
     28 C          65.9191   92.2430   15.2909 C.ar    1  UNL1        0.1795
     29 O          64.7319   92.1785   16.2055 O.2     1  UNL1       -0.4475
     30 C          63.9108   90.9853   15.8157 C.ar    1  UNL1        0.1789
@<TRIPOS>BOND
     1     2     1    1
     2     2     3    1
     3     3     4    1
     4     4    26    1
     5    26    27   ar
     6    27    28   ar
     7    28    29   ar
     8    29    30   ar
     9     4     5    1
    10     5     6    1
    11     6     7    2
    12     8     6    1
    13     8     9    1
    14     9    10    1
    15     9    11    1
    16    11    12    1
    17    12    13    1
    18    12    14    1
    19    14    15    1
    20    15    16    1
    21    16    17    1
    22    17    18    2
    23    17    19    1
    24    19    20    1
    25    19    21    1
    26    21    22    1
    27    23    22    1
    28     8     2    1
    29    19    12    1
    30    23    21    1
    31    14     2    1
    32    23    15    1
    33    30    26   ar
    34    10    24    1
    35    20    25    1
@<TRIPOS>MOLECULE
*****
 30 35 0 0 0
SMALL
GASTEIGER

@<TRIPOS>ATOM
      1 C          63.7319   87.0943   13.4756 C.3     1  UNL1        0.0009
      2 C          62.9357   87.1294   12.2049 C.3     1  UNL1        0.0197
      3 C          63.2130   85.8191   12.8803 C.3     1  UNL1        0.0492
      4 C          62.6940   84.5438   12.2849 C.3     1  UNL1        0.1942
      5 O          61.8979   84.5788   11.0142 O.3     1  UNL1       -0.4475
      6 C          61.6206   85.8892   10.3388 C.2     1  UNL1        0.3190
      7 O          60.8244   85.9242    9.0680 O.2     1  UNL1       -0.2500
      8 C          62.1395   87.1644   10.9341 C.3     1  UNL1        0.1260
      9 C          61.8622   88.4747   10.2586 C.3     1  UNL1        0.1211
     10 O          61.0660   88.5098    8.9879 O.3     1  UNL1       -0.3839
     11 C          62.3811   89.7500   10.8540 C.3     1  UNL1        0.0328
     12 C          63.1773   89.7149   12.1247 C.3     1  UNL1        0.0407
     13 C          62.9000   91.0253   11.4493 C.3     1  UNL1        0.0032
     14 C          63.4546   88.4046   12.8002 C.3     1  UNL1        0.0463
     15 C          64.2508   88.3696   14.0709 C.3     1  UNL1        0.1983
     16 O          64.0734   89.0634   13.6647 O.3     1  UNL1       -0.4480
     17 C          63.8226   90.2483   13.0539 C.2     1  UNL1        0.3437
     18 O          63.4126   90.0052   12.4464 O.2     1  UNL1       -0.2474
     19 C          63.6962   90.9902   12.7200 C.3     1  UNL1        0.2047
     20 O          63.4189   92.3005   12.0446 O.3     1  UNL1       -0.3746
     21 C          64.4925   90.9552   13.9909 C.3     1  UNL1        0.1806
     22 O          65.2886   90.9201   15.2616 O.3     1  UNL1       -0.3469
     23 C          64.7697   89.6449   14.6663 C.3     1  UNL1        0.1849
     24 H          60.9794   89.4274    8.6858 H       1  UNL1        0.2104
     25 H          63.8221   93.0195   12.5559 H       1  UNL1        0.2110
     26 C          62.9713   83.2335   12.9604 C.ar    1  UNL1        0.0580
     27 C          62.6639   81.8737   12.4066 C.ar    1  UNL1        0.0430
     28 C          63.1073   80.8527   13.4122 C.ar    1  UNL1        0.1795
     29 O          63.6887   81.5815   14.5873 O.2     1  UNL1       -0.4475
     30 C          63.6047   83.0528   14.3080 C.ar    1  UNL1        0.1789
@<TRIPOS>BOND
     1     2     1    1
     2     2     3    1
     3     3     4    1
     4     4    26    1
     5    26    27   ar
     6    27    28   ar
     7    28    29   ar
     8    29    30   ar
     9     4     5    1
    10     5     6    1
    11     6     7    2
    12     8     6    1
    13     8     9    1
    14     9    10    1
    15     9    11    1
    16    11    12    1
    17    12    13    1
    18    12    14    1
    19    14    15    1
    20    15    16    1
    21    16    17    1
    22    17    18    2
    23    17    19    1
    24    19    20    1
    25    19    21    1
    26    21    22    1
    27    23    22    1
    28     8     2    1
    29    19    12    1
    30    23    21    1
    31    14     2    1
    32    23    15    1
    33    30    26   ar
    34    10    24    1
    35    20    25    1
@<TRIPOS>MOLECULE
*****
 30 35 0 0 0
SMALL
GASTEIGER

@<TRIPOS>ATOM
      1 C          63.8121   91.5363   10.5782 C.3     1  UNL1        0.0009
      2 C          63.9212   90.6901   11.8119 C.3     1  UNL1        0.0197
      3 C          63.0402   90.2542   10.6788 C.3     1  UNL1        0.0492
      4 C          62.2683   88.9719   10.7795 C.3     1  UNL1        0.1942
      5 O          62.3774   88.1257   12.0131 O.3     1  UNL1       -0.4475
      6 C          63.2583   88.5617   13.1462 C.2     1  UNL1        0.3190
      7 O          63.3673   87.7154   14.3799 O.2     1  UNL1       -0.2500
      8 C          64.0302   89.8438   13.0456 C.3     1  UNL1        0.1260
      9 C          64.9111   90.2798   14.1787 C.3     1  UNL1        0.1211
     10 O          65.0202   89.4336   15.4124 O.3     1  UNL1       -0.3839
     11 C          65.6830   91.5621   14.0781 C.3     1  UNL1        0.0328
     12 C          65.5740   92.4083   12.8444 C.3     1  UNL1        0.0407
     13 C          66.4549   92.8442   13.9775 C.3     1  UNL1        0.0032
     14 C          64.6930   91.9723   11.7113 C.3     1  UNL1        0.0463
     15 C          64.5840   92.8185   10.4777 C.3     1  UNL1        0.1983
     16 O          65.0538   93.0161   11.1243 O.3     1  UNL1       -0.4480
     17 C          65.8504   93.4103   12.1489 C.2     1  UNL1        0.3437
     18 O          65.7370   92.8276   12.6427 O.2     1  UNL1       -0.2474
     19 C          66.3459   93.6904   12.7438 C.3     1  UNL1        0.2047
     20 O          67.2268   94.1264   13.8769 O.3     1  UNL1       -0.3746
     21 C          66.2369   94.5367   11.5101 C.3     1  UNL1        0.1806
     22 O          66.1278   95.3829   10.2765 O.3     1  UNL1       -0.3469
     23 C          65.3559   94.1008   10.3770 C.3     1  UNL1        0.1849
     24 H          65.6255   89.8560   16.0418 H       1  UNL1        0.2104
     25 H          67.6500   94.9696   13.6515 H       1  UNL1        0.2110
     26 C          61.3874   88.5359    9.6464 C.ar    1  UNL1        0.0580
     27 C          60.3731   89.3864    8.9405 C.ar    1  UNL1        0.0430
     28 C          59.7249   88.5490    7.8781 C.ar    1  UNL1        0.1795
     29 O          60.3386   87.1811    7.9273 O.2     1  UNL1       -0.4475
     30 C          61.3660   87.1731    9.0202 C.ar    1  UNL1        0.1789
@<TRIPOS>BOND
     1     2     1    1
     2     2     3    1
     3     3     4    1
     4     4    26    1
     5    26    27   ar
     6    27    28   ar
     7    28    29   ar
     8    29    30   ar
     9     4     5    1
    10     5     6    1
    11     6     7    2
    12     8     6    1
    13     8     9    1
    14     9    10    1
    15     9    11    1
    16    11    12    1
    17    12    13    1
    18    12    14    1
    19    14    15    1
    20    15    16    1
    21    16    17    1
    22    17    18    2
    23    17    19    1
    24    19    20    1
    25    19    21    1
    26    21    22    1
    27    23    22    1
    28     8     2    1
    29    19    12    1
    30    23    21    1
    31    14     2    1
    32    23    15    1
    33    30    26   ar
    34    10    24    1
    35    20    25    1
@<TRIPOS>MOLECULE
*****
 30 35 0 0 0
SMALL
GASTEIGER

@<TRIPOS>ATOM
      1 C          62.8079   84.5813   11.6245 C.3     1  UNL1        0.0009
      2 C          62.8994   86.0754   11.7197 C.3     1  UNL1        0.0197
      3 C          62.4482   85.4315   10.4423 C.3     1  UNL1        0.0492
      4 C          62.0885   86.2819    9.2601 C.3     1  UNL1        0.1942
      5 O          62.1800   87.7760    9.3553 O.3     1  UNL1       -0.4475
      6 C          62.6312   88.4199   10.6327 C.2     1  UNL1        0.3190
      7 O          62.7227   89.9141   10.7280 O.2     1  UNL1       -0.2500
      8 C          62.9909   87.5697   11.8149 C.3     1  UNL1        0.1260
      9 C          63.4421   88.2136   13.0924 C.3     1  UNL1        0.1211
     10 O          63.5336   89.7077   13.1876 O.3     1  UNL1       -0.3839
     11 C          63.8018   87.3632   14.2746 C.3     1  UNL1        0.0328
     12 C          63.7103   85.8691   14.1794 C.3     1  UNL1        0.0407
     13 C          64.1615   86.5130   15.4568 C.3     1  UNL1        0.0032
     14 C          63.2591   85.2252   12.9019 C.3     1  UNL1        0.0463
     15 C          63.1676   83.7310   12.8067 C.3     1  UNL1        0.1983
     16 O          63.4096   84.1293   13.4855 O.3     1  UNL1       -0.4480
     17 C          63.8176   84.7116   14.6406 C.2     1  UNL1        0.3437
     18 O          63.7804   85.4561   14.4394 O.2     1  UNL1       -0.2474
     19 C          64.0700   85.0188   15.3616 C.3     1  UNL1        0.2047
     20 O          64.5212   85.6627   16.6390 O.3     1  UNL1       -0.3746
     21 C          63.9785   83.5246   15.2664 C.3     1  UNL1        0.1806
     22 O          63.8870   82.0305   15.1712 O.3     1  UNL1       -0.3469
     23 C          63.5273   82.8807   13.9890 C.3     1  UNL1        0.1849
     24 H          63.8388   89.9571   14.0739 H       1  UNL1        0.2104
     25 H          64.7129   84.9763   17.2970 H       1  UNL1        0.2110
     26 C          61.6373   85.6380    7.9826 C.ar    1  UNL1        0.0580
     27 C          62.4949   84.8369    7.0482 C.ar    1  UNL1        0.0430
     28 C          61.6369   84.3859    5.9034 C.ar    1  UNL1        0.1795
     29 O          60.2492   84.9083    6.1303 O.2     1  UNL1       -0.4475
     30 C          60.2495   85.6821    7.4153 C.ar    1  UNL1        0.1789
@<TRIPOS>BOND
     1     2     1    1
     2     2     3    1
     3     3     4    1
     4     4    26    1
     5    26    27   ar
     6    27    28   ar
     7    28    29   ar
     8    29    30   ar
     9     4     5    1
    10     5     6    1
    11     6     7    2
    12     8     6    1
    13     8     9    1
    14     9    10    1
    15     9    11    1
    16    11    12    1
    17    12    13    1
    18    12    14    1
    19    14    15    1
    20    15    16    1
    21    16    17    1
    22    17    18    2
    23    17    19    1
    24    19    20    1
    25    19    21    1
    26    21    22    1
    27    23    22    1
    28     8     2    1
    29    19    12    1
    30    23    21    1
    31    14     2    1
    32    23    15    1
    33    30    26   ar
    34    10    24    1
    35    20    25    1
@<TRIPOS>MOLECULE
*****
 30 35 0 0 0
SMALL
GASTEIGER

@<TRIPOS>ATOM
      1 C          64.3688   91.9316   10.9304 C.3     1  UNL1        0.0009
      2 C          65.1568   92.2646   12.1625 C.3     1  UNL1        0.0197
      3 C          65.2228   93.1643   10.9640 C.3     1  UNL1        0.0492
      4 C          66.0768   94.3971   10.9977 C.3     1  UNL1        0.1942
      5 O          66.8647   94.7301   12.2298 O.3     1  UNL1       -0.4475
      6 C          66.7988   93.8304   13.4283 C.2     1  UNL1        0.3190
      7 O          67.5868   94.1635   14.6604 O.2     1  UNL1       -0.2500
      8 C          65.9449   92.5977   13.3946 C.3     1  UNL1        0.1260
      9 C          65.8789   91.6980   14.5930 C.3     1  UNL1        0.1211
     10 O          66.6669   92.0311   15.8251 O.3     1  UNL1       -0.3839
     11 C          65.0249   90.4653   14.5593 C.3     1  UNL1        0.0328
     12 C          64.2370   90.1322   13.3272 C.3     1  UNL1        0.0407
     13 C          64.1710   89.2326   14.5257 C.3     1  UNL1        0.0032
     14 C          64.3029   91.0319   12.1288 C.3     1  UNL1        0.0463
     15 C          63.5149   90.6989   10.8967 C.3     1  UNL1        0.1983
     16 O          63.5106   90.2363   11.5778 O.3     1  UNL1       -0.4480
     17 C          63.4510   89.4228   12.6615 C.2     1  UNL1        0.3437
     18 O          63.9252   89.7986   13.1412 O.2     1  UNL1       -0.2474
     19 C          63.3830   88.8995   13.2936 C.3     1  UNL1        0.2047
     20 O          63.3171   87.9999   14.4920 O.3     1  UNL1       -0.3746
     21 C          62.5950   88.5664   12.0614 C.3     1  UNL1        0.1806
     22 O          61.8070   88.2334   10.8293 O.3     1  UNL1       -0.3469
     23 C          62.6609   89.4661   10.8630 C.3     1  UNL1        0.1849
     24 H          66.5130   91.3523   16.5007 H       1  UNL1        0.2104
     25 H          62.7249   87.2548   14.3048 H       1  UNL1        0.2110
     26 C          66.1427   95.2967    9.7993 C.ar    1  UNL1        0.0580
     27 C          65.0104   96.1080    9.2425 C.ar    1  UNL1        0.0430
     28 C          65.5205   96.8558    8.0463 C.ar    1  UNL1        0.1795
     29 O          66.9678   96.5067    7.8639 O.2     1  UNL1       -0.4475
     30 C          67.3524   95.5431    8.9473 C.ar    1  UNL1        0.1789
@<TRIPOS>BOND
     1     2     1    1
     2     2     3    1
     3     3     4    1
     4     4    26    1
     5    26    27   ar
     6    27    28   ar
     7    28    29   ar
     8    29    30   ar
     9     4     5    1
    10     5     6    1
    11     6     7    2
    12     8     6    1
    13     8     9    1
    14     9    10    1
    15     9    11    1
    16    11    12    1
    17    12    13    1
    18    12    14    1
    19    14    15    1
    20    15    16    1
    21    16    17    1
    22    17    18    2
    23    17    19    1
    24    19    20    1
    25    19    21    1
    26    21    22    1
    27    23    22    1
    28     8     2    1
    29    19    12    1
    30    23    21    1
    31    14     2    1
    32    23    15    1
    33    30    26   ar
    34    10    24    1
    35    20    25    1
