@<TRIPOS>MOLECULE
*****
 34 38 0 0 0
SMALL
GASTEIGER

@<TRIPOS>ATOM
      1 C          62.8473   87.2366   12.1287 C.2     1  UNL1        0.2507
      2 O          63.7379   87.7920   13.2002 O.2     1  UNL1       -0.2698
      3 N          61.7986   88.1055   11.4999 N.am    1  UNL1       -0.2723
      4 C          60.9080   87.5500   10.4283 C.3     1  UNL1        0.1257
      5 C          59.8593   88.4190    9.7996 C.3     1  UNL1        0.1637
      6 O          59.7013   89.8434   10.2425 O.3     1  UNL1       -0.3502
      7 C          60.5919   90.3988   11.3141 C.3     1  UNL1        0.1622
      8 C          61.6406   89.5299   11.9428 C.3     1  UNL1        0.1096
      9 C          63.1917   84.0558    9.7804 C.ar    1  UNL1        0.1349
     10 C          63.0337   85.4802   10.2233 C.ar    1  UNL1        0.0427
     11 C          63.0053   85.8122   11.6858 C.ar    1  UNL1        0.0759
     12 C          63.1349   84.7197   12.7054 C.ar    1  UNL1        0.1071
     13 C          63.2929   83.2953   12.2626 C.ar    1  UNL1        0.0198
     14 C          63.3213   82.9634   10.8001 C.ar    1  UNL1        0.0137
     15 C          63.4793   81.5390   10.3572 C.3     1  UNL1        0.0343
     16 N          63.1066   85.0517   14.1680 N.ar    1  UNL1       -0.1477
     17 N          64.2315   85.6524   14.9577 N.ar    1  UNL1       -0.1447
     18 C          63.7686   85.8133   16.3754 C.ar    1  UNL1        0.1446
     19 C          62.3574   85.3119   16.4618 C.ar    1  UNL1        0.1446
     20 N          61.9483   84.8413   15.0976 N.ar    1  UNL1       -0.1447
     21 C          62.7126   84.7159    7.3136 C.3     1  UNL1        0.2525
     22 O          63.2200   83.7238    8.3179 O.3     1  UNL1       -0.4717
     23 C          62.5312   90.0854   13.0144 C.3     1  UNL1        0.0488
     24 C          63.7094   90.9366   12.6438 C.ar    1  UNL1       -0.0189
     25 C          63.8592   91.4390   11.2384 C.ar    1  UNL1       -0.0041
     26 C          65.0374   92.2902   10.8678 C.ar    1  UNL1        0.0013
     27 C          66.0657   92.6391   11.9026 C.ar    1  UNL1        0.0209
     28 C          65.9158   92.1368   13.3081 C.ar    1  UNL1        0.1026
     29 C          64.7376   91.2855   13.6786 C.ar    1  UNL1        0.0167
     30 N          66.9441   92.4857   14.3429 N.ar    1  UNL1       -0.1478
     31 N          67.6248   91.5222   15.2694 N.ar    1  UNL1       -0.1447
     32 C          68.5736   92.3004   16.1320 C.ar    1  UNL1        0.1446
     33 C          68.4793   93.7449   15.7387 C.ar    1  UNL1        0.1446
     34 N          67.4722   93.8594   14.6329 N.ar    1  UNL1       -0.1447
@<TRIPOS>BOND
     1    21    22    1
     2    22     9    1
     3     9    10   ar
     4    10    11   ar
     5    11     1    1
     6     1     2    2
     7     1     3   am
     8     3     4    1
     9     4     5    1
    10     5     6    1
    11     6     7    1
    12     7     8    1
    13     8    23    1
    14    23    24    1
    15    24    25   ar
    16    25    26   ar
    17    26    27   ar
    18    27    28   ar
    19    28    30    1
    20    30    31   ar
    21    31    32   ar
    22    32    33   ar
    23    33    34   ar
    24    28    29   ar
    25    11    12   ar
    26    12    16    1
    27    16    17   ar
    28    17    18   ar
    29    18    19   ar
    30    19    20   ar
    31    12    13   ar
    32    13    14   ar
    33    14    15    1
    34    14     9   ar
    35     8     3    1
    36    29    24   ar
    37    20    16   ar
    38    34    30   ar
@<TRIPOS>MOLECULE
*****
 34 38 0 0 0
SMALL
GASTEIGER

@<TRIPOS>ATOM
      1 C          63.1051   87.2702   12.5034 C.2     1  UNL1        0.2507
      2 O          63.7456   87.6431   13.8075 O.2     1  UNL1       -0.2698
      3 N          62.4274   88.3199   11.6734 N.am    1  UNL1       -0.2723
      4 C          61.7868   87.9470   10.3693 C.3     1  UNL1        0.1257
      5 C          61.1091   88.9968    9.5394 C.3     1  UNL1        0.1637
      6 O          61.0720   90.4194   10.0136 O.3     1  UNL1       -0.3502
      7 C          61.7125   90.7922   11.3176 C.3     1  UNL1        0.1622
      8 C          62.3902   89.7425   12.1476 C.3     1  UNL1        0.1096
      9 C          63.2138   84.1248   10.0859 C.ar    1  UNL1        0.1349
     10 C          63.1766   85.5474   10.5600 C.ar    1  UNL1        0.0427
     11 C          63.1422   85.8476   12.0292 C.ar    1  UNL1        0.0759
     12 C          63.1450   84.7252   13.0243 C.ar    1  UNL1        0.1071
     13 C          63.1821   83.3026   12.5502 C.ar    1  UNL1        0.0198
     14 C          63.2165   83.0024   11.0810 C.ar    1  UNL1        0.0137
     15 C          63.2536   81.5798   10.6068 C.3     1  UNL1        0.0343
     16 N          63.1106   85.0254   14.4936 N.ar    1  UNL1       -0.1477
     17 N          64.2825   85.4281   15.3389 N.ar    1  UNL1       -0.1447
     18 C          63.7945   85.6272   16.7432 C.ar    1  UNL1        0.1446
     19 C          62.3209   85.3477   16.7658 C.ar    1  UNL1        0.1446
     20 N          61.8983   84.9758   15.3755 N.ar    1  UNL1       -0.1447
     21 C          62.8157   84.8664    7.6279 C.3     1  UNL1        0.2525
     22 O          63.2481   83.8246    8.6166 O.3     1  UNL1       -0.4717
     23 C          63.0308   90.1154   13.4517 C.3     1  UNL1        0.0488
     24 C          64.3443   90.8396   13.4621 C.ar    1  UNL1       -0.0189
     25 C          65.2851   90.6700   14.6181 C.ar    1  UNL1       -0.0041
     26 C          66.5986   91.3941   14.6285 C.ar    1  UNL1        0.0013
     27 C          66.9715   92.2879   13.4829 C.ar    1  UNL1        0.0209
     28 C          66.0308   92.4574   12.3270 C.ar    1  UNL1        0.1026
     29 C          64.7171   91.7333   12.3166 C.ar    1  UNL1        0.0167
     30 N          66.4036   93.3511   11.1815 N.ar    1  UNL1       -0.1478
     31 N          65.6736   94.5907   10.7565 N.ar    1  UNL1       -0.1447
     32 C          66.3907   95.1679    9.5721 C.ar    1  UNL1        0.1446
     33 C          67.5638   94.2849    9.2651 C.ar    1  UNL1        0.1446
     34 N          67.5718   93.1621   10.2597 N.ar    1  UNL1       -0.1447
@<TRIPOS>BOND
     1    21    22    1
     2    22     9    1
     3     9    10   ar
     4    10    11   ar
     5    11     1    1
     6     1     2    2
     7     1     3   am
     8     3     4    1
     9     4     5    1
    10     5     6    1
    11     6     7    1
    12     7     8    1
    13     8    23    1
    14    23    24    1
    15    24    25   ar
    16    25    26   ar
    17    26    27   ar
    18    27    28   ar
    19    28    30    1
    20    30    31   ar
    21    31    32   ar
    22    32    33   ar
    23    33    34   ar
    24    28    29   ar
    25    11    12   ar
    26    12    16    1
    27    16    17   ar
    28    17    18   ar
    29    18    19   ar
    30    19    20   ar
    31    12    13   ar
    32    13    14   ar
    33    14    15    1
    34    14     9   ar
    35     8     3    1
    36    29    24   ar
    37    20    16   ar
    38    34    30   ar
@<TRIPOS>MOLECULE
*****
 34 38 0 0 0
SMALL
GASTEIGER

@<TRIPOS>ATOM
      1 C          63.4162   88.0483   13.2251 C.2     1  UNL1        0.2507
      2 O          63.6345   89.1530   12.2342 O.2     1  UNL1       -0.2698
      3 N          63.3597   88.3568   14.6919 N.am    1  UNL1       -0.2723
      4 C          63.1414   87.2520   15.6828 C.3     1  UNL1        0.1257
      5 C          63.0849   87.5605   17.1497 C.3     1  UNL1        0.1637
      6 O          63.2467   88.9738   17.6256 O.3     1  UNL1       -0.3502
      7 C          63.4650   90.0786   16.6347 C.3     1  UNL1        0.1622
      8 C          63.5215   89.7701   15.1679 C.3     1  UNL1        0.1096
      9 C          63.8354   84.1112   12.9548 C.ar    1  UNL1        0.1349
     10 C          63.9973   85.5244   13.4307 C.ar    1  UNL1        0.0427
     11 C          63.2544   86.6350   12.7491 C.ar    1  UNL1        0.0759
     12 C          62.3496   86.3324   11.5916 C.ar    1  UNL1        0.1071
     13 C          62.1878   84.9192   11.1157 C.ar    1  UNL1        0.0198
     14 C          62.9306   83.8086   11.7972 C.ar    1  UNL1        0.0137
     15 C          62.7688   82.3953   11.3213 C.3     1  UNL1        0.0343
     16 N          61.6067   87.4431   10.9100 N.ar    1  UNL1       -0.1477
     17 N          60.4196   88.1771   11.4597 N.ar    1  UNL1       -0.1447
     18 C          59.9997   89.2025   10.4486 C.ar    1  UNL1        0.1446
     19 C          60.9273   89.1022    9.2740 C.ar    1  UNL1        0.1446
     20 N          61.9205   88.0149    9.5592 N.ar    1  UNL1       -0.1447
     21 C          63.9984   82.3484   14.8564 C.3     1  UNL1        0.2525
     22 O          64.5783   83.0005   13.6364 O.3     1  UNL1       -0.4717
     23 C          63.7399   90.8749   14.1770 C.3     1  UNL1        0.0488
     24 C          65.1231   91.4014   13.9335 C.ar    1  UNL1       -0.0189
     25 C          66.2050   91.1636   14.9449 C.ar    1  UNL1       -0.0041
     26 C          67.5882   91.6902   14.7014 C.ar    1  UNL1        0.0013
     27 C          67.8897   92.4546   13.4464 C.ar    1  UNL1        0.0209
     28 C          66.8078   92.6923   12.4350 C.ar    1  UNL1        0.1026
     29 C          65.4245   92.1657   12.6785 C.ar    1  UNL1        0.0167
     30 N          67.1092   93.4566   11.1800 N.ar    1  UNL1       -0.1478
     31 N          66.7789   94.8973   10.9243 N.ar    1  UNL1       -0.1447
     32 C          67.2593   95.2456    9.5467 C.ar    1  UNL1        0.1446
     33 C          67.8866   94.0201    8.9510 C.ar    1  UNL1        0.1446
     34 N          67.7937   92.9145    9.9605 N.ar    1  UNL1       -0.1447
@<TRIPOS>BOND
     1    21    22    1
     2    22     9    1
     3     9    10   ar
     4    10    11   ar
     5    11     1    1
     6     1     2    2
     7     1     3   am
     8     3     4    1
     9     4     5    1
    10     5     6    1
    11     6     7    1
    12     7     8    1
    13     8    23    1
    14    23    24    1
    15    24    25   ar
    16    25    26   ar
    17    26    27   ar
    18    27    28   ar
    19    28    30    1
    20    30    31   ar
    21    31    32   ar
    22    32    33   ar
    23    33    34   ar
    24    28    29   ar
    25    11    12   ar
    26    12    16    1
    27    16    17   ar
    28    17    18   ar
    29    18    19   ar
    30    19    20   ar
    31    12    13   ar
    32    13    14   ar
    33    14    15    1
    34    14     9   ar
    35     8     3    1
    36    29    24   ar
    37    20    16   ar
    38    34    30   ar
@<TRIPOS>MOLECULE
*****
 34 38 0 0 0
SMALL
GASTEIGER

@<TRIPOS>ATOM
      1 C          62.6703   88.5278   11.5950 C.2     1  UNL1        0.2507
      2 O          62.6510   90.0274   11.5667 O.2     1  UNL1       -0.2698
      3 N          63.3269   87.8076   12.7352 N.am    1  UNL1       -0.2723
      4 C          63.3463   86.3079   12.7634 C.3     1  UNL1        0.1257
      5 C          64.0029   85.5877   13.9037 C.3     1  UNL1        0.1637
      6 O          64.6401   86.3671   15.0157 O.3     1  UNL1       -0.3502
      7 C          64.6208   87.8667   14.9874 C.3     1  UNL1        0.1622
      8 C          63.9642   88.5869   13.8471 C.3     1  UNL1        0.1096
      9 C          62.2006   85.9624    8.6037 C.ar    1  UNL1        0.1349
     10 C          62.8379   86.7418    9.7156 C.ar    1  UNL1        0.0427
     11 C          62.0331   87.7484   10.4830 C.ar    1  UNL1        0.0759
     12 C          60.5910   87.9757   10.1384 C.ar    1  UNL1        0.1071
     13 C          59.9537   87.1964    9.0265 C.ar    1  UNL1        0.0198
     14 C          60.7585   86.1897    8.2591 C.ar    1  UNL1        0.0137
     15 C          60.1212   85.4103    7.1471 C.3     1  UNL1        0.0343
     16 N          59.7862   88.9824   10.9058 N.ar    1  UNL1       -0.1477
     17 N          59.5873   90.4216   10.5326 N.ar    1  UNL1       -0.1447
     18 C          58.7172   91.0554   11.5773 C.ar    1  UNL1        0.1446
     19 C          58.3784   90.0078   12.5961 C.ar    1  UNL1        0.1446
     20 N          59.0390   88.7267   12.1811 N.ar    1  UNL1       -0.1447
     21 C          62.7143   84.7116    6.3851 C.3     1  UNL1        0.2525
     22 O          63.0054   84.9557    7.8362 O.3     1  UNL1       -0.4717
     23 C          63.9449   90.0866   13.8189 C.3     1  UNL1        0.0488
     24 C          65.2331   90.8521   13.7535 C.ar    1  UNL1       -0.0189
     25 C          66.1771   90.8327   14.9190 C.ar    1  UNL1       -0.0041
     26 C          67.4654   91.5983   14.8536 C.ar    1  UNL1        0.0013
     27 C          67.8096   92.3833   13.6226 C.ar    1  UNL1        0.0209
     28 C          66.8656   92.4027   12.4571 C.ar    1  UNL1        0.1026
     29 C          65.5773   91.6371   12.5226 C.ar    1  UNL1        0.0167
     30 N          67.2098   93.1877   11.2261 N.ar    1  UNL1       -0.1478
     31 N          67.9538   92.6712   10.0304 N.ar    1  UNL1       -0.1447
     32 C          68.0743   93.7913    9.0400 C.ar    1  UNL1        0.1446
     33 C          67.4048   95.0001    9.6237 C.ar    1  UNL1        0.1446
     34 N          66.8705   94.6270   10.9748 N.ar    1  UNL1       -0.1447
@<TRIPOS>BOND
     1    21    22    1
     2    22     9    1
     3     9    10   ar
     4    10    11   ar
     5    11     1    1
     6     1     2    2
     7     1     3   am
     8     3     4    1
     9     4     5    1
    10     5     6    1
    11     6     7    1
    12     7     8    1
    13     8    23    1
    14    23    24    1
    15    24    25   ar
    16    25    26   ar
    17    26    27   ar
    18    27    28   ar
    19    28    30    1
    20    30    31   ar
    21    31    32   ar
    22    32    33   ar
    23    33    34   ar
    24    28    29   ar
    25    11    12   ar
    26    12    16    1
    27    16    17   ar
    28    17    18   ar
    29    18    19   ar
    30    19    20   ar
    31    12    13   ar
    32    13    14   ar
    33    14    15    1
    34    14     9   ar
    35     8     3    1
    36    29    24   ar
    37    20    16   ar
    38    34    30   ar
@<TRIPOS>MOLECULE
*****
 34 38 0 0 0
SMALL
GASTEIGER

@<TRIPOS>ATOM
      1 C          62.3845   87.9118   11.1270 C.2     1  UNL1        0.2507
      2 O          63.4957   88.5554   10.3517 O.2     1  UNL1       -0.2698
      3 N          61.1349   88.6847   11.4288 N.am    1  UNL1       -0.2723
      4 C          60.0237   88.0410   12.2041 C.3     1  UNL1        0.1257
      5 C          58.7741   88.8139   12.5059 C.3     1  UNL1        0.1637
      6 O          58.6357   90.2305   12.0324 O.3     1  UNL1       -0.3502
      7 C          59.7468   90.8742   11.2572 C.3     1  UNL1        0.1622
      8 C          60.9965   90.1013   10.9554 C.3     1  UNL1        0.1096
      9 C          63.2819   84.7913   13.4088 C.ar    1  UNL1        0.1349
     10 C          63.1435   86.2078   12.9354 C.ar    1  UNL1        0.0427
     11 C          62.5230   86.4952   11.6004 C.ar    1  UNL1        0.0759
     12 C          62.0408   85.3660   10.7388 C.ar    1  UNL1        0.1071
     13 C          62.1792   83.9494   11.2122 C.ar    1  UNL1        0.0198
     14 C          62.7998   83.6621   12.5472 C.ar    1  UNL1        0.0137
     15 C          62.9382   82.2454   13.0207 C.3     1  UNL1        0.0343
     16 N          61.4203   85.6534    9.4037 N.ar    1  UNL1       -0.1477
     17 N          61.9963   85.2902    8.0672 N.ar    1  UNL1       -0.1447
     18 C          61.0469   85.7667    7.0082 C.ar    1  UNL1        0.1446
     19 C          59.8840   86.4244    7.6903 C.ar    1  UNL1        0.1446
     20 N          60.1148   86.3543    9.1708 N.ar    1  UNL1       -0.1447
     21 C          63.9180   85.5619   15.8071 C.3     1  UNL1        0.2525
     22 O          63.9024   84.5039   14.7439 O.3     1  UNL1       -0.4717
     23 C          62.1076   90.7450   10.1801 C.3     1  UNL1        0.0488
     24 C          63.2691   91.3592   10.9036 C.ar    1  UNL1       -0.0189
     25 C          63.5244   91.0147   12.3411 C.ar    1  UNL1       -0.0041
     26 C          64.6859   91.6289   13.0646 C.ar    1  UNL1        0.0013
     27 C          65.5922   92.5876   12.3508 C.ar    1  UNL1        0.0209
     28 C          65.3369   92.9322   10.9134 C.ar    1  UNL1        0.1026
     29 C          64.1753   92.3179   10.1898 C.ar    1  UNL1        0.0167
     30 N          66.2431   93.8909   10.1996 N.ar    1  UNL1       -0.1478
     31 N          67.3811   93.5211    9.2949 N.ar    1  UNL1       -0.1447
     32 C          68.0118   94.7894    8.8013 C.ar    1  UNL1        0.1446
     33 C          67.2636   95.9430    9.4008 C.ar    1  UNL1        0.1446
     34 N          66.1705   95.3877   10.2650 N.ar    1  UNL1       -0.1447
@<TRIPOS>BOND
     1    21    22    1
     2    22     9    1
     3     9    10   ar
     4    10    11   ar
     5    11     1    1
     6     1     2    2
     7     1     3   am
     8     3     4    1
     9     4     5    1
    10     5     6    1
    11     6     7    1
    12     7     8    1
    13     8    23    1
    14    23    24    1
    15    24    25   ar
    16    25    26   ar
    17    26    27   ar
    18    27    28   ar
    19    28    30    1
    20    30    31   ar
    21    31    32   ar
    22    32    33   ar
    23    33    34   ar
    24    28    29   ar
    25    11    12   ar
    26    12    16    1
    27    16    17   ar
    28    17    18   ar
    29    18    19   ar
    30    19    20   ar
    31    12    13   ar
    32    13    14   ar
    33    14    15    1
    34    14     9   ar
    35     8     3    1
    36    29    24   ar
    37    20    16   ar
    38    34    30   ar
@<TRIPOS>MOLECULE
*****
 34 38 0 0 0
SMALL
GASTEIGER

@<TRIPOS>ATOM
      1 C          62.3956   87.9235   11.0737 C.2     1  UNL1        0.2507
      2 O          63.4901   88.5508   10.2623 O.2     1  UNL1       -0.2698
      3 N          61.1422   88.6943   11.3653 N.am    1  UNL1       -0.2723
      4 C          60.0476   88.0669   12.1768 C.3     1  UNL1        0.1257
      5 C          58.7942   88.8377   12.4684 C.3     1  UNL1        0.1637
      6 O          58.6354   90.2357   11.9485 O.3     1  UNL1       -0.3502
      7 C          59.7300   90.8630   11.1370 C.3     1  UNL1        0.1622
      8 C          60.9833   90.0923   10.8454 C.3     1  UNL1        0.1096
      9 C          63.3167   84.8946   13.4668 C.ar    1  UNL1        0.1349
     10 C          63.1579   86.2926   12.9470 C.ar    1  UNL1        0.0427
     11 C          62.5544   86.5255   11.5937 C.ar    1  UNL1        0.0759
     12 C          62.1096   85.3603   10.7602 C.ar    1  UNL1        0.1071
     13 C          62.2684   83.9623   11.2801 C.ar    1  UNL1        0.0198
     14 C          62.8719   83.7294   12.6334 C.ar    1  UNL1        0.0137
     15 C          63.0308   82.3314   13.1533 C.3     1  UNL1        0.0343
     16 N          61.5061   85.5933    9.4068 N.ar    1  UNL1       -0.1477
     17 N          62.1055   85.1887    8.0927 N.ar    1  UNL1       -0.1447
     18 C          61.1671   85.6170    7.0037 C.ar    1  UNL1        0.1446
     19 C          59.9877   86.2863    7.6448 C.ar    1  UNL1        0.1446
     20 N          60.1972   86.2716    9.1301 N.ar    1  UNL1       -0.1447
     21 C          63.8762   85.7443   15.8574 C.3     1  UNL1        0.2525
     22 O          63.9202   84.6617   14.8202 O.3     1  UNL1       -0.4717
     23 C          62.0779   90.7196   10.0339 C.3     1  UNL1        0.0488
     24 C          63.2584   91.3406   10.7200 C.ar    1  UNL1       -0.0189
     25 C          64.3465   91.9796    9.9090 C.ar    1  UNL1       -0.0041
     26 C          65.5271   92.6006   10.5950 C.ar    1  UNL1        0.0013
     27 C          65.6196   92.5825   12.0921 C.ar    1  UNL1        0.0209
     28 C          64.5315   91.9435   12.9031 C.ar    1  UNL1        0.1026
     29 C          63.3509   91.3225   12.2170 C.ar    1  UNL1        0.0167
     30 N          64.6240   91.9254   14.4001 N.ar    1  UNL1       -0.1478
     31 N          65.6630   92.6220   15.2278 N.ar    1  UNL1       -0.1447
     32 C          65.3748   92.3347   16.6715 C.ar    1  UNL1        0.1446
     33 C          64.1576   91.4604   16.7361 C.ar    1  UNL1        0.1446
     34 N          63.6936   91.2074   15.3323 N.ar    1  UNL1       -0.1447
@<TRIPOS>BOND
     1    21    22    1
     2    22     9    1
     3     9    10   ar
     4    10    11   ar
     5    11     1    1
     6     1     2    2
     7     1     3   am
     8     3     4    1
     9     4     5    1
    10     5     6    1
    11     6     7    1
    12     7     8    1
    13     8    23    1
    14    23    24    1
    15    24    25   ar
    16    25    26   ar
    17    26    27   ar
    18    27    28   ar
    19    28    30    1
    20    30    31   ar
    21    31    32   ar
    22    32    33   ar
    23    33    34   ar
    24    28    29   ar
    25    11    12   ar
    26    12    16    1
    27    16    17   ar
    28    17    18   ar
    29    18    19   ar
    30    19    20   ar
    31    12    13   ar
    32    13    14   ar
    33    14    15    1
    34    14     9   ar
    35     8     3    1
    36    29    24   ar
    37    20    16   ar
    38    34    30   ar
@<TRIPOS>MOLECULE
*****
 34 38 0 0 0
SMALL
GASTEIGER

@<TRIPOS>ATOM
      1 C          63.0918   87.7997   12.5035 C.2     1  UNL1        0.2507
      2 O          63.0459   88.7024   11.3065 O.2     1  UNL1       -0.2698
      3 N          63.2045   88.3847   13.8802 N.am    1  UNL1       -0.2723
      4 C          63.2505   87.4820   15.0773 C.3     1  UNL1        0.1257
      5 C          63.3632   88.0670   16.4539 C.3     1  UNL1        0.1637
      6 O          63.4300   89.5547   16.6334 O.3     1  UNL1       -0.3502
      7 C          63.3840   90.4574   15.4363 C.3     1  UNL1        0.1622
      8 C          63.2713   89.8724   14.0597 C.3     1  UNL1        0.1096
      9 C          63.7543   83.9240   13.0422 C.ar    1  UNL1        0.1349
     10 C          63.8211   85.4117   13.2217 C.ar    1  UNL1        0.0427
     11 C          63.0250   86.3119   12.3240 C.ar    1  UNL1        0.0759
     12 C          62.1622   85.7245   11.2468 C.ar    1  UNL1        0.1071
     13 C          62.0954   84.2368   11.0673 C.ar    1  UNL1        0.0198
     14 C          62.8914   83.3366   11.9650 C.ar    1  UNL1        0.0137
     15 C          62.8246   81.8488   11.7855 C.3     1  UNL1        0.0343
     16 N          61.3661   86.6248   10.3491 N.ar    1  UNL1       -0.1477
     17 N          60.2427   87.5236   10.7736 N.ar    1  UNL1       -0.1447
     18 C          59.7360   88.2387    9.5562 C.ar    1  UNL1        0.1446
     19 C          60.5462   87.7817    8.3794 C.ar    1  UNL1        0.1446
     20 N          61.5536   86.7843    8.8695 N.ar    1  UNL1       -0.1447
     21 C          64.3310   83.0594   15.4233 C.3     1  UNL1        0.2525
     22 O          64.5504   83.0237   13.9399 O.3     1  UNL1       -0.4717
     23 C          63.2254   90.7752   12.8626 C.3     1  UNL1        0.0488
     24 C          64.4381   91.5678   12.4740 C.ar    1  UNL1       -0.0189
     25 C          64.6042   92.0397   11.0599 C.ar    1  UNL1       -0.0041
     26 C          65.8169   92.8323   10.6712 C.ar    1  UNL1        0.0013
     27 C          66.8636   93.1530   11.6968 C.ar    1  UNL1        0.0209
     28 C          66.6975   92.6811   13.1109 C.ar    1  UNL1        0.1026
     29 C          65.4847   91.8885   13.4995 C.ar    1  UNL1        0.0167
     30 N          67.7441   93.0018   14.1364 N.ar    1  UNL1       -0.1478
     31 N          67.5737   93.9144   15.3146 N.ar    1  UNL1       -0.1447
     32 C          68.8692   93.9428   16.0701 C.ar    1  UNL1        0.1446
     33 C          69.8403   93.0477   15.3588 C.ar    1  UNL1        0.1446
     34 N          69.1450   92.4662   14.1637 N.ar    1  UNL1       -0.1447
@<TRIPOS>BOND
     1    21    22    1
     2    22     9    1
     3     9    10   ar
     4    10    11   ar
     5    11     1    1
     6     1     2    2
     7     1     3   am
     8     3     4    1
     9     4     5    1
    10     5     6    1
    11     6     7    1
    12     7     8    1
    13     8    23    1
    14    23    24    1
    15    24    25   ar
    16    25    26   ar
    17    26    27   ar
    18    27    28   ar
    19    28    30    1
    20    30    31   ar
    21    31    32   ar
    22    32    33   ar
    23    33    34   ar
    24    28    29   ar
    25    11    12   ar
    26    12    16    1
    27    16    17   ar
    28    17    18   ar
    29    18    19   ar
    30    19    20   ar
    31    12    13   ar
    32    13    14   ar
    33    14    15    1
    34    14     9   ar
    35     8     3    1
    36    29    24   ar
    37    20    16   ar
    38    34    30   ar
@<TRIPOS>MOLECULE
*****
 34 38 0 0 0
SMALL
GASTEIGER

@<TRIPOS>ATOM
      1 C          62.9825   89.6447   10.8786 C.2     1  UNL1        0.2507
      2 O          63.4781   88.9026    9.6730 O.2     1  UNL1       -0.2698
      3 N          61.6228   89.3455   11.4369 N.am    1  UNL1       -0.2723
      4 C          61.1271   90.0877   12.6425 C.3     1  UNL1        0.1257
      5 C          59.7674   89.7886   13.2008 C.3     1  UNL1        0.1637
      6 O          58.9034   88.7472   12.5535 O.3     1  UNL1       -0.3502
      7 C          59.3990   88.0050   11.3479 C.3     1  UNL1        0.1622
      8 C          60.7587   88.3042   10.7896 C.3     1  UNL1        0.1096
      9 C          65.0340   92.9952   11.4399 C.ar    1  UNL1        0.1349
     10 C          64.1700   91.9539   10.7926 C.ar    1  UNL1        0.0427
     11 C          63.8465   90.6861   11.5260 C.ar    1  UNL1        0.0759
     12 C          64.3870   90.4596   12.9067 C.ar    1  UNL1        0.1071
     13 C          65.2510   91.5009   13.5541 C.ar    1  UNL1        0.0198
     14 C          65.5745   92.7687   12.8207 C.ar    1  UNL1        0.0137
     15 C          66.4386   93.8101   13.4681 C.3     1  UNL1        0.0343
     16 N          64.0635   89.1917   13.6401 N.ar    1  UNL1       -0.1477
     17 N          63.8226   89.0632   15.1151 N.ar    1  UNL1       -0.1447
     18 C          63.5343   87.6218   15.4139 C.ar    1  UNL1        0.1446
     19 C          63.5970   86.8595   14.1236 C.ar    1  UNL1        0.1446
     20 N          63.9240   87.8297   13.0273 N.ar    1  UNL1       -0.1447
     21 C          66.5703   94.3319    9.8265 C.3     1  UNL1        0.2525
     22 O          65.3576   94.2631   10.7065 O.3     1  UNL1       -0.4717
     23 C          61.2544   87.5620    9.5839 C.3     1  UNL1        0.0488
     24 C          61.9980   86.2702    9.7517 C.ar    1  UNL1       -0.0189
     25 C          62.7830   85.7025    8.6065 C.ar    1  UNL1       -0.0041
     26 C          63.5266   84.4107    8.7743 C.ar    1  UNL1        0.0013
     27 C          63.4853   83.6866   10.0874 C.ar    1  UNL1        0.0209
     28 C          62.7004   84.2543   11.2326 C.ar    1  UNL1        0.1026
     29 C          61.9567   85.5462   11.0647 C.ar    1  UNL1        0.0167
     30 N          62.6590   83.5303   12.5456 N.ar    1  UNL1       -0.1478
     31 N          62.2983   84.1302   13.8723 N.ar    1  UNL1       -0.1447
     32 C          62.3875   83.0499   14.9091 C.ar    1  UNL1        0.1446
     33 C          62.8034   81.7823   14.2232 C.ar    1  UNL1        0.1446
     34 N          62.9712   82.0793   12.7625 N.ar    1  UNL1       -0.1447
@<TRIPOS>BOND
     1    21    22    1
     2    22     9    1
     3     9    10   ar
     4    10    11   ar
     5    11     1    1
     6     1     2    2
     7     1     3   am
     8     3     4    1
     9     4     5    1
    10     5     6    1
    11     6     7    1
    12     7     8    1
    13     8    23    1
    14    23    24    1
    15    24    25   ar
    16    25    26   ar
    17    26    27   ar
    18    27    28   ar
    19    28    30    1
    20    30    31   ar
    21    31    32   ar
    22    32    33   ar
    23    33    34   ar
    24    28    29   ar
    25    11    12   ar
    26    12    16    1
    27    16    17   ar
    28    17    18   ar
    29    18    19   ar
    30    19    20   ar
    31    12    13   ar
    32    13    14   ar
    33    14    15    1
    34    14     9   ar
    35     8     3    1
    36    29    24   ar
    37    20    16   ar
    38    34    30   ar
