@<TRIPOS>MOLECULE
*****
 45 49 0 0 0
SMALL
GASTEIGER

@<TRIPOS>ATOM
      1 C          61.8161   86.1436   10.8951 C.3     1  UNL1        0.1696
      2 C          62.5404   84.9705   11.4863 C.3     1  UNL1        0.1274
      3 N          63.4534   84.9379   12.6759 N.am    1  UNL1       -0.2518
      4 C          64.0282   83.5954   13.0185 C.2     1  UNL1        0.2528
      5 O          64.9536   83.4527   14.1905 O.2     1  UNL1       -0.2696
      6 C          63.8678   86.0702   13.5683 C.ar    1  UNL1        0.0678
      7 C          64.7987   85.6044   14.6482 C.ar    1  UNL1        0.0162
      8 C          65.3332   86.5833   15.6513 C.ar    1  UNL1        0.0014
      9 C          64.9367   88.0279   15.5744 C.ar    1  UNL1        0.0014
     10 C          64.0058   88.4937   14.4944 C.ar    1  UNL1        0.0162
     11 C          63.4713   87.5148   13.4913 C.ar    1  UNL1        0.0679
     12 N          62.5626   88.1839   12.5030 N.am    1  UNL1       -0.2517
     13 C          61.8260   87.5737   11.3476 C.2     1  UNL1        0.2493
     14 O          60.9885   88.5184   10.5377 O.2     1  UNL1       -0.2727
     15 C          63.6777   82.3957   12.1892 C.ar    1  UNL1        0.0540
     16 C          62.9800   81.2266   12.8189 C.ar    1  UNL1        0.0058
     17 C          62.6295   80.0269   11.9897 C.ar    1  UNL1        0.0142
     18 C          62.9766   79.9962   10.5307 C.ar    1  UNL1        0.0415
     19 N          62.6260   78.7964    9.7014 N.pl3   1  UNL1       -0.3570
     20 C          63.6742   81.1652    9.9010 C.ar    1  UNL1        0.0142
     21 C          64.0248   82.3650   10.7303 C.ar    1  UNL1        0.0058
     22 H          62.1681   78.0291   10.1147 H       1  UNL1        0.1424
     23 H          62.8539   78.7763    8.7438 H       1  UNL1        0.1424
     24 C          61.6170   85.6134    8.3596 C.2     1  UNL1        0.2371
     25 O          63.1100   85.6758    8.2292 O.2     1  UNL1       -0.2737
     26 N          60.9700   85.8473    9.6925 N.am    1  UNL1       -0.2959
     27 H          59.9901   85.8064    9.7780 H       1  UNL1        0.1499
     28 C          60.7709   85.3172    7.1569 C.3     1  UNL1        0.1316
     29 C          61.3363   84.5175    6.0207 C.3     1  UNL1        0.0270
     30 C          59.0417   87.2215    7.5224 C.3     1  UNL1        0.0862
     31 N          59.3595   85.8206    7.0904 N.3     1  UNL1       -0.2902
     32 H          59.0629   85.7380    6.1179 H       1  UNL1        0.1237
     33 C          62.3644   89.6582   12.6957 C.3     1  UNL1        0.1278
     34 C          63.3447   90.6299   12.1083 C.ar    1  UNL1        0.0320
     35 C          63.3413   90.8990   10.6327 C.ar    1  UNL1        0.1363
     36 C          64.3215   91.8707   10.0453 C.ar    1  UNL1        0.0366
     37 C          65.3052   92.5732   10.9336 C.ar    1  UNL1        0.0031
     38 C          65.3085   92.3040   12.4093 C.ar    1  UNL1       -0.0001
     39 C          66.2922   93.0065   13.2976 C.ar    1  UNL1       -0.0000
     40 C          66.2955   92.7372   14.7732 C.ar    1  UNL1       -0.0000
     41 C          65.3152   91.7656   15.3606 C.ar    1  UNL1       -0.0000
     42 C          64.3316   91.0631   14.4722 C.ar    1  UNL1       -0.0002
     43 C          64.3283   91.3323   12.9967 C.ar    1  UNL1        0.0006
     44 O          62.3577   90.1966    9.7444 O.3     1  UNL1       -0.4717
     45 C          60.9347   90.4616    9.3508 C.3     1  UNL1        0.2525
@<TRIPOS>BOND
     1    30    31    1
     2    31    28    1
     3    28    29    1
     4    28    24    1
     5    24    25    2
     6    24    26   am
     7     1    26    1
     8     1     2    1
     9     2     3    1
    10     3     4   am
    11     4     5    2
    12     4    15    1
    13    15    16   ar
    14    16    17   ar
    15    17    18   ar
    16    18    19    1
    17    18    20   ar
    18    20    21   ar
    19     3     6    1
    20     6     7   ar
    21     7     8   ar
    22     8     9   ar
    23     9    10   ar
    24    10    11   ar
    25    11    12    1
    26    12    33    1
    27    33    34    1
    28    34    35   ar
    29    35    44    1
    30    44    45    1
    31    35    36   ar
    32    36    37   ar
    33    37    38   ar
    34    38    39   ar
    35    39    40   ar
    36    40    41   ar
    37    41    42   ar
    38    42    43   ar
    39    12    13   am
    40    13    14    2
    41    13     1    1
    42    21    15   ar
    43    11     6   ar
    44    43    34   ar
    45    43    38   ar
    46    31    32    1
    47    26    27    1
    48    19    22    1
    49    19    23    1
@<TRIPOS>MOLECULE
*****
 45 49 0 0 0
SMALL
GASTEIGER

@<TRIPOS>ATOM
      1 C          62.4767   86.3881   10.9516 C.3     1  UNL1        0.1696
      2 C          62.8153   85.1311   11.6969 C.3     1  UNL1        0.1274
      3 N          63.2177   84.9753   13.1335 N.am    1  UNL1       -0.2518
      4 C          63.4933   83.5711   13.5835 C.2     1  UNL1        0.2528
      5 O          63.9030   83.3048   15.0017 O.2     1  UNL1       -0.2696
      6 C          63.3809   86.0378   14.1796 C.ar    1  UNL1        0.0678
      7 C          63.7984   85.4516   15.4957 C.ar    1  UNL1        0.0162
      8 C          64.0171   86.3462   16.6796 C.ar    1  UNL1        0.0014
      9 C          63.8182   87.8271   16.5475 C.ar    1  UNL1        0.0014
     10 C          63.4007   88.4133   15.2315 C.ar    1  UNL1        0.0162
     11 C          63.1820   87.5187   14.0475 C.ar    1  UNL1        0.0679
     12 N          62.7708   88.3027   12.8367 N.am    1  UNL1       -0.2517
     13 C          62.4569   87.7996   11.4588 C.2     1  UNL1        0.2493
     14 O          62.0724   88.8463   10.4557 O.2     1  UNL1       -0.2727
     15 C          63.3593   82.4333   12.6152 C.ar    1  UNL1        0.0540
     16 C          62.6915   81.1599   13.0422 C.ar    1  UNL1        0.0058
     17 C          62.5575   80.0220   12.0741 C.ar    1  UNL1        0.0142
     18 C          63.0913   80.1577   10.6789 C.ar    1  UNL1        0.0415
     19 N          62.9573   79.0199    9.7106 N.pl3   1  UNL1       -0.3570
     20 C          63.7590   81.4311   10.2518 C.ar    1  UNL1        0.0142
     21 C          63.8931   82.5690   11.2200 C.ar    1  UNL1        0.0058
     22 H          62.5190   78.1840    9.9909 H       1  UNL1        0.1424
     23 H          63.3076   79.1089    8.7949 H       1  UNL1        0.1424
     24 C          60.6979   86.4463    9.0589 C.2     1  UNL1        0.2371
     25 O          59.6538   86.8608   10.0529 O.2     1  UNL1       -0.2737
     26 N          62.1094   86.2100    9.5083 N.am    1  UNL1       -0.2959
     27 H          62.7947   85.9380    8.8559 H       1  UNL1        0.1499
     28 C          60.3306   86.2682    7.6155 C.3     1  UNL1        0.1316
     29 C          61.0797   85.2840    6.7669 C.3     1  UNL1        0.0270
     30 C          59.2015   88.5663    7.1752 C.3     1  UNL1        0.0862
     31 N          59.2142   87.0743    7.0208 N.3     1  UNL1       -0.2902
     32 H          59.2134   86.8820    6.0190 H       1  UNL1        0.1237
     33 C          62.6586   89.7861   13.0291 C.3     1  UNL1        0.1278
     34 C          63.5620   90.7115   12.2690 C.ar    1  UNL1        0.0320
     35 C          63.1445   91.2308   10.9251 C.ar    1  UNL1        0.1363
     36 C          64.0477   92.1562   10.1650 C.ar    1  UNL1        0.0366
     37 C          65.3685   92.5621   10.7487 C.ar    1  UNL1        0.0031
     38 C          65.7860   92.0427   12.0926 C.ar    1  UNL1       -0.0001
     39 C          67.1068   92.4487   12.6763 C.ar    1  UNL1       -0.0000
     40 C          67.5243   91.9293   14.0201 C.ar    1  UNL1       -0.0000
     41 C          66.6210   91.0039   14.7803 C.ar    1  UNL1       -0.0000
     42 C          65.3002   90.5980   14.1965 C.ar    1  UNL1       -0.0002
     43 C          64.8828   91.1174   12.8527 C.ar    1  UNL1        0.0006
     44 O          61.8237   90.8249   10.3413 O.3     1  UNL1       -0.4717
     45 C          60.4042   90.9049   10.8195 C.3     1  UNL1        0.2525
@<TRIPOS>BOND
     1    30    31    1
     2    31    28    1
     3    28    29    1
     4    28    24    1
     5    24    25    2
     6    24    26   am
     7     1    26    1
     8     1     2    1
     9     2     3    1
    10     3     4   am
    11     4     5    2
    12     4    15    1
    13    15    16   ar
    14    16    17   ar
    15    17    18   ar
    16    18    19    1
    17    18    20   ar
    18    20    21   ar
    19     3     6    1
    20     6     7   ar
    21     7     8   ar
    22     8     9   ar
    23     9    10   ar
    24    10    11   ar
    25    11    12    1
    26    12    33    1
    27    33    34    1
    28    34    35   ar
    29    35    44    1
    30    44    45    1
    31    35    36   ar
    32    36    37   ar
    33    37    38   ar
    34    38    39   ar
    35    39    40   ar
    36    40    41   ar
    37    41    42   ar
    38    42    43   ar
    39    12    13   am
    40    13    14    2
    41    13     1    1
    42    21    15   ar
    43    11     6   ar
    44    43    34   ar
    45    43    38   ar
    46    31    32    1
    47    26    27    1
    48    19    22    1
    49    19    23    1
@<TRIPOS>MOLECULE
*****
 45 49 0 0 0
SMALL
GASTEIGER

@<TRIPOS>ATOM
      1 C          61.5310   89.0491    9.5226 C.3     1  UNL1        0.1696
      2 C          61.8698   87.6137    9.2488 C.3     1  UNL1        0.1274
      3 N          62.4730   86.6017   10.1773 N.am    1  UNL1       -0.2518
      4 C          62.6917   85.2357    9.5976 C.2     1  UNL1        0.2528
      5 O          63.2896   84.1495   10.4419 O.2     1  UNL1       -0.2696
      6 C          62.8863   86.7750   11.6088 C.ar    1  UNL1        0.0678
      7 C          63.4486   85.5047   12.1745 C.ar    1  UNL1        0.0162
      8 C          63.9231   85.4626   13.5968 C.ar    1  UNL1        0.0014
      9 C          63.8353   86.6908   14.4534 C.ar    1  UNL1        0.0014
     10 C          63.2730   87.9611   13.8877 C.ar    1  UNL1        0.0162
     11 C          62.7985   88.0032   12.4654 C.ar    1  UNL1        0.0679
     12 N          62.2758   89.3615   12.1020 N.am    1  UNL1       -0.2517
     13 C          61.7117   89.8270   10.7924 C.2     1  UNL1        0.2493
     14 O          61.2699   91.2596   10.7465 O.2     1  UNL1       -0.2727
     15 C          62.3126   84.9557    8.1735 C.ar    1  UNL1        0.0540
     16 C          60.8739   85.0188    7.7542 C.ar    1  UNL1        0.0058
     17 C          60.4947   84.7388    6.3302 C.ar    1  UNL1        0.0142
     18 C          61.5544   84.3958    5.3255 C.ar    1  UNL1        0.0415
     19 N          61.1753   84.1159    3.9014 N.pl3   1  UNL1       -0.3570
     20 C          62.9931   84.3328    5.7448 C.ar    1  UNL1        0.0142
     21 C          63.3723   84.6127    7.1688 C.ar    1  UNL1        0.0058
     22 H          60.2309   84.1572    3.6262 H       1  UNL1        0.1424
     23 H          61.8708   83.8908    3.2420 H       1  UNL1        0.1424
     24 C          59.8266   89.1946    7.5672 C.2     1  UNL1        0.2371
     25 O          59.3193   87.8245    7.9074 O.2     1  UNL1       -0.2737
     26 N          60.9324   89.8069    8.3748 N.am    1  UNL1       -0.2959
     27 H          61.2654   90.7061    8.1515 H       1  UNL1        0.1499
     28 C          59.2280   89.9524    6.4194 C.3     1  UNL1        0.1316
     29 C          60.1198   90.6230    5.4169 C.3     1  UNL1        0.0270
     30 C          57.1363   90.9525    5.2470 C.3     1  UNL1        0.0862
     31 N          57.7376   90.0395    6.2741 N.3     1  UNL1       -0.2902
     32 H          57.4070   89.0984    6.0611 H       1  UNL1        0.1237
     33 C          62.3234   90.3903   13.1926 C.3     1  UNL1        0.1278
     34 C          63.6445   90.9164   13.6702 C.ar    1  UNL1        0.0320
     35 C          64.0074   90.8246   15.1227 C.ar    1  UNL1        0.1363
     36 C          65.3284   91.3507   15.6005 C.ar    1  UNL1        0.0366
     37 C          66.2864   91.9686   14.6256 C.ar    1  UNL1        0.0031
     38 C          65.9235   92.0605   13.1730 C.ar    1  UNL1       -0.0001
     39 C          66.8815   92.6784   12.1982 C.ar    1  UNL1       -0.0000
     40 C          66.5185   92.7702   10.7457 C.ar    1  UNL1       -0.0000
     41 C          65.1975   92.2441   10.2680 C.ar    1  UNL1       -0.0000
     42 C          64.2395   91.6262   11.2429 C.ar    1  UNL1       -0.0002
     43 C          64.6024   91.5343   12.6953 C.ar    1  UNL1        0.0006
     44 O          63.0494   90.2066   16.0977 O.3     1  UNL1       -0.4717
     45 C          63.1373   89.0598   17.0605 C.3     1  UNL1        0.2525
@<TRIPOS>BOND
     1    30    31    1
     2    31    28    1
     3    28    29    1
     4    28    24    1
     5    24    25    2
     6    24    26   am
     7     1    26    1
     8     1     2    1
     9     2     3    1
    10     3     4   am
    11     4     5    2
    12     4    15    1
    13    15    16   ar
    14    16    17   ar
    15    17    18   ar
    16    18    19    1
    17    18    20   ar
    18    20    21   ar
    19     3     6    1
    20     6     7   ar
    21     7     8   ar
    22     8     9   ar
    23     9    10   ar
    24    10    11   ar
    25    11    12    1
    26    12    33    1
    27    33    34    1
    28    34    35   ar
    29    35    44    1
    30    44    45    1
    31    35    36   ar
    32    36    37   ar
    33    37    38   ar
    34    38    39   ar
    35    39    40   ar
    36    40    41   ar
    37    41    42   ar
    38    42    43   ar
    39    12    13   am
    40    13    14    2
    41    13     1    1
    42    21    15   ar
    43    11     6   ar
    44    43    34   ar
    45    43    38   ar
    46    31    32    1
    47    26    27    1
    48    19    22    1
    49    19    23    1
