@<TRIPOS>MOLECULE
*****
 30 34 0 0 0
SMALL
GASTEIGER

@<TRIPOS>ATOM
      1 C          63.0941   89.5878   12.9812 C.ar    1  UNL1        0.2182
      2 N          63.1122   88.1996   12.4133 N.ar    1  UNL1       -0.2115
      3 C          62.2489   88.1893   11.1867 C.ar    1  UNL1        0.1207
      4 C          61.8939   87.1002   10.2183 C.ar    1  UNL1        0.0482
      5 C          60.9871   87.3930    9.0598 C.ar    1  UNL1        0.1417
      6 F          60.6321   86.3038    8.0913 F       1  UNL1       -0.2041
      7 C          60.4355   88.7747    8.8696 C.ar    1  UNL1        0.0329
      8 C          60.7905   89.8639    9.8380 C.ar    1  UNL1        0.0414
      9 C          61.6972   89.5712   10.9965 C.ar    1  UNL1        0.1645
     10 O          62.2196   90.4355   12.1056 O.2     1  UNL1       -0.4378
     11 C          62.4456   85.7183   10.4084 C.ar    1  UNL1        0.0037
     12 C          63.1925   85.0489    9.2931 C.ar    1  UNL1        0.0001
     13 C          63.7441   83.6671    9.4832 C.ar    1  UNL1        0.0000
     14 C          63.5488   82.9546   10.7887 C.ar    1  UNL1        0.0000
     15 C          62.8019   83.6240   11.9040 C.ar    1  UNL1        0.0000
     16 C          62.2503   85.0059   11.7139 C.ar    1  UNL1        0.0001
     17 C          63.8225   90.0476   14.2092 C.3     1  UNL1        0.2065
     18 O          67.1413   93.3266   16.4969 O.2     1  UNL1       -0.2422
     19 C          66.5020   92.7825   15.2539 C.2     1  UNL1        0.3644
     20 C          66.8826   93.3336   13.9117 C.3     1  UNL1        0.2333
     21 C          66.2432   92.7895   12.6687 C.2     1  UNL1        0.3159
     22 N          65.2232   91.6941   12.7680 N.2     1  UNL1       -0.0039
     23 C          64.8425   91.1429   14.1101 C.2     1  UNL1        0.3581
     24 N          65.4820   91.6872   15.3531 N.am    1  UNL1        0.0289
     25 N          66.6238   93.3406   11.3266 N.pl3   1  UNL1       -0.1888
     26 C          66.1267   94.6906   10.9018 C.3     1  UNL1        0.2343
     27 C          66.5073   95.2418    9.5597 C.3     1  UNL1        0.1929
     28 O          67.3851   94.4429    8.6423 O.3     1  UNL1       -0.3449
     29 C          67.8822   93.0930    9.0672 C.3     1  UNL1        0.1929
     30 C          67.5016   92.5418   10.4093 C.3     1  UNL1        0.2343
@<TRIPOS>BOND
     1    18    19    2
     2    19    20    1
     3    20    21    1
     4    21    25    1
     5    25    26    1
     6    26    27    1
     7    27    28    1
     8    28    29    1
     9    29    30    1
    10    21    22    2
    11    22    23    1
    12    23    17    1
    13    17     1    1
    14     1     2   ar
    15     2     3   ar
    16     3     4   ar
    17     4    11    1
    18    11    12   ar
    19    12    13   ar
    20    13    14   ar
    21    14    15   ar
    22    15    16   ar
    23     4     5   ar
    24     5     6    1
    25     5     7   ar
    26     7     8   ar
    27     8     9   ar
    28     9    10   ar
    29    23    24    2
    30    24    19    1
    31    30    25    1
    32    10     1   ar
    33     9     3   ar
    34    16    11   ar
@<TRIPOS>MOLECULE
*****
 30 34 0 0 0
SMALL
GASTEIGER

@<TRIPOS>ATOM
      1 C          62.8554   90.0600   12.0821 C.ar    1  UNL1        0.2182
      2 N          63.8993   91.0361   11.6266 N.ar    1  UNL1       -0.2115
      3 C          64.6230   91.5405   12.8397 C.ar    1  UNL1        0.1207
      4 C          65.7482   92.5189   13.0026 C.ar    1  UNL1        0.0482
      5 C          66.2769   92.8329   14.3709 C.ar    1  UNL1        0.1417
      6 F          67.4022   93.8114   14.5338 F       1  UNL1       -0.2041
      7 C          65.6804   92.1686   15.5761 C.ar    1  UNL1        0.0329
      8 C          64.5552   91.1901   15.4132 C.ar    1  UNL1        0.0414
      9 C          64.0265   90.8761   14.0450 C.ar    1  UNL1        0.1645
     10 O          62.9340   89.9611   13.5768 O.2     1  UNL1       -0.4378
     11 C          66.3448   93.1834   11.7974 C.ar    1  UNL1        0.0037
     12 C          66.1334   94.6506   11.5682 C.ar    1  UNL1        0.0001
     13 C          66.7301   95.3150   10.3629 C.ar    1  UNL1        0.0000
     14 C          67.5381   94.5121    9.3869 C.ar    1  UNL1        0.0000
     15 C          67.7495   93.0449    9.6161 C.ar    1  UNL1        0.0000
     16 C          67.1528   92.3805   10.8214 C.ar    1  UNL1        0.0001
     17 C          61.9006   89.3137   11.1982 C.3     1  UNL1        0.2065
     18 O          62.1915   85.4207    7.7689 O.2     1  UNL1       -0.2422
     19 C          62.2808   85.9168    9.1817 C.2     1  UNL1        0.3644
     20 C          62.6049   84.9624   10.2926 C.3     1  UNL1        0.2333
     21 C          62.6943   85.4585   11.7054 C.2     1  UNL1        0.3159
     22 N          62.4594   86.9090   12.0072 N.2     1  UNL1       -0.0039
     23 C          62.1353   87.8633   10.8963 C.2     1  UNL1        0.3581
     24 N          62.0460   87.3672    9.4835 N.am    1  UNL1        0.0289
     25 N          63.0184   84.5041   12.8163 N.pl3   1  UNL1       -0.1888
     26 C          62.7243   83.0417   12.6584 C.3     1  UNL1        0.2343
     27 C          63.0484   82.0873   13.7693 C.3     1  UNL1        0.1929
     28 O          63.6666   82.5954   15.0382 O.3     1  UNL1       -0.3449
     29 C          63.9606   84.0578   15.1960 C.3     1  UNL1        0.1929
     30 C          63.6365   85.0122   14.0851 C.3     1  UNL1        0.2343
@<TRIPOS>BOND
     1    18    19    2
     2    19    20    1
     3    20    21    1
     4    21    25    1
     5    25    26    1
     6    26    27    1
     7    27    28    1
     8    28    29    1
     9    29    30    1
    10    21    22    2
    11    22    23    1
    12    23    17    1
    13    17     1    1
    14     1     2   ar
    15     2     3   ar
    16     3     4   ar
    17     4    11    1
    18    11    12   ar
    19    12    13   ar
    20    13    14   ar
    21    14    15   ar
    22    15    16   ar
    23     4     5   ar
    24     5     6    1
    25     5     7   ar
    26     7     8   ar
    27     8     9   ar
    28     9    10   ar
    29    23    24    2
    30    24    19    1
    31    30    25    1
    32    10     1   ar
    33     9     3   ar
    34    16    11   ar
@<TRIPOS>MOLECULE
*****
 30 34 0 0 0
SMALL
GASTEIGER

@<TRIPOS>ATOM
      1 C          62.4921   90.6901   10.5900 C.ar    1  UNL1        0.2182
      2 N          62.7637   90.0786   11.9325 N.ar    1  UNL1       -0.2115
      3 C          63.9556   90.7707   12.5244 C.ar    1  UNL1        0.1207
      4 C          64.6776   90.5889   13.8266 C.ar    1  UNL1        0.0482
      5 C          65.8646   91.4463   14.1521 C.ar    1  UNL1        0.1417
      6 F          66.5866   91.2644   15.4543 F       1  UNL1       -0.2041
      7 C          66.3296   92.4854   13.1755 C.ar    1  UNL1        0.0329
      8 C          65.6076   92.6673   11.8733 C.ar    1  UNL1        0.0414
      9 C          64.4206   91.8099   11.5478 C.ar    1  UNL1        0.1645
     10 O          63.5161   91.7601   10.3522 O.2     1  UNL1       -0.4378
     11 C          64.2126   89.5497   14.8033 C.ar    1  UNL1        0.0037
     12 C          63.4895   89.9630   16.0507 C.ar    1  UNL1        0.0001
     13 C          63.0245   88.9238   17.0273 C.ar    1  UNL1        0.0000
     14 C          63.2828   87.4712   16.7565 C.ar    1  UNL1        0.0000
     15 C          64.0060   87.0578   15.5091 C.ar    1  UNL1        0.0000
     16 C          64.4709   88.0971   14.5325 C.ar    1  UNL1        0.0001
     17 C          61.3899   90.3001    9.6502 C.3     1  UNL1        0.2065
     18 O          58.5445   86.6190    7.3366 O.2     1  UNL1       -0.2422
     19 C          59.6859   87.0103    8.2277 C.2     1  UNL1        0.3644
     20 C          60.5459   85.9524    8.8532 C.3     1  UNL1        0.2333
     21 C          61.6872   86.3437    9.7444 C.2     1  UNL1        0.3159
     22 N          61.9685   87.7930   10.0100 N.2     1  UNL1       -0.0039
     23 C          61.1085   88.8509    9.3845 C.2     1  UNL1        0.3581
     24 N          59.9672   88.4595    8.4934 N.am    1  UNL1        0.0289
     25 N          62.5472   85.2858   10.3699 N.pl3   1  UNL1       -0.1888
     26 C          63.3227   84.3397    9.5018 C.3     1  UNL1        0.2343
     27 C          64.1827   83.2818   10.1273 C.3     1  UNL1        0.1929
     28 O          64.2672   83.1700   11.6208 O.3     1  UNL1       -0.3449
     29 C          63.4917   84.1162   12.4888 C.3     1  UNL1        0.1929
     30 C          62.6317   85.1741   11.8633 C.3     1  UNL1        0.2343
@<TRIPOS>BOND
     1    18    19    2
     2    19    20    1
     3    20    21    1
     4    21    25    1
     5    25    26    1
     6    26    27    1
     7    27    28    1
     8    28    29    1
     9    29    30    1
    10    21    22    2
    11    22    23    1
    12    23    17    1
    13    17     1    1
    14     1     2   ar
    15     2     3   ar
    16     3     4   ar
    17     4    11    1
    18    11    12   ar
    19    12    13   ar
    20    13    14   ar
    21    14    15   ar
    22    15    16   ar
    23     4     5   ar
    24     5     6    1
    25     5     7   ar
    26     7     8   ar
    27     8     9   ar
    28     9    10   ar
    29    23    24    2
    30    24    19    1
    31    30    25    1
    32    10     1   ar
    33     9     3   ar
    34    16    11   ar
@<TRIPOS>MOLECULE
*****
 30 34 0 0 0
SMALL
GASTEIGER

@<TRIPOS>ATOM
      1 C          63.5714   88.8600   13.5473 C.ar    1  UNL1        0.2182
      2 N          63.0760   88.1038   12.3504 N.ar    1  UNL1       -0.2115
      3 C          63.3117   86.6428   12.5951 C.ar    1  UNL1        0.1207
      4 C          63.0254   85.4270   11.7645 C.ar    1  UNL1        0.0482
      5 C          63.3802   84.0645   12.2821 C.ar    1  UNL1        0.1417
      6 F          63.0938   82.8487   11.4514 F       1  UNL1       -0.2041
      7 C          64.0212   83.9179   13.6301 C.ar    1  UNL1        0.0329
      8 C          64.3076   85.1336   14.4608 C.ar    1  UNL1        0.0414
      9 C          63.9528   86.4961   13.9432 C.ar    1  UNL1        0.1645
     10 O          64.1133   87.8664   14.5317 O.2     1  UNL1       -0.4378
     11 C          62.3843   85.5737   10.4163 C.ar    1  UNL1        0.0037
     12 C          61.0391   86.2257   10.2924 C.ar    1  UNL1        0.0001
     13 C          60.3981   86.3723    8.9442 C.ar    1  UNL1        0.0000
     14 C          61.1022   85.8668    7.7200 C.ar    1  UNL1        0.0000
     15 C          62.4474   85.2148    7.8439 C.ar    1  UNL1        0.0000
     16 C          63.0884   85.0682    9.1921 C.ar    1  UNL1        0.0001
     17 C          63.5319   90.3486   13.7281 C.3     1  UNL1        0.2065
     18 O          67.9589   91.8661   15.9861 O.2     1  UNL1       -0.2422
     19 C          67.0174   91.9015   14.8190 C.2     1  UNL1        0.3644
     20 C          67.3478   92.7311   13.6137 C.3     1  UNL1        0.2333
     21 C          66.4062   92.7665   12.4465 C.2     1  UNL1        0.3159
     22 N          65.1343   91.9723   12.4847 N.2     1  UNL1       -0.0039
     23 C          64.8039   91.1427   13.6900 C.2     1  UNL1        0.3581
     24 N          65.7455   91.1074   14.8571 N.am    1  UNL1        0.0289
     25 N          66.7366   93.5961   11.2413 N.pl3   1  UNL1       -0.1888
     26 C          66.3367   95.0410   11.1929 C.3     1  UNL1        0.2343
     27 C          66.6671   95.8706    9.9876 C.3     1  UNL1        0.1929
     28 O          67.3974   95.2552    8.8308 O.3     1  UNL1       -0.3449
     29 C          67.7973   93.8103    8.8793 C.3     1  UNL1        0.1929
     30 C          67.4669   92.9808   10.0846 C.3     1  UNL1        0.2343
@<TRIPOS>BOND
     1    18    19    2
     2    19    20    1
     3    20    21    1
     4    21    25    1
     5    25    26    1
     6    26    27    1
     7    27    28    1
     8    28    29    1
     9    29    30    1
    10    21    22    2
    11    22    23    1
    12    23    17    1
    13    17     1    1
    14     1     2   ar
    15     2     3   ar
    16     3     4   ar
    17     4    11    1
    18    11    12   ar
    19    12    13   ar
    20    13    14   ar
    21    14    15   ar
    22    15    16   ar
    23     4     5   ar
    24     5     6    1
    25     5     7   ar
    26     7     8   ar
    27     8     9   ar
    28     9    10   ar
    29    23    24    2
    30    24    19    1
    31    30    25    1
    32    10     1   ar
    33     9     3   ar
    34    16    11   ar
@<TRIPOS>MOLECULE
*****
 30 34 0 0 0
SMALL
GASTEIGER

@<TRIPOS>ATOM
      1 C          64.0726   88.4628   14.6630 C.ar    1  UNL1        0.2182
      2 N          63.9188   87.4229   13.5930 N.ar    1  UNL1       -0.2115
      3 C          63.5085   86.1386   14.2504 C.ar    1  UNL1        0.1207
      4 C          63.2129   84.7767   13.6955 C.ar    1  UNL1        0.0482
      5 C          62.8174   83.6611   14.6169 C.ar    1  UNL1        0.1417
      6 F          62.5217   82.2991   14.0619 F       1  UNL1       -0.2041
      7 C          62.7176   83.9072   16.0931 C.ar    1  UNL1        0.0329
      8 C          63.0132   85.2691   16.6481 C.ar    1  UNL1        0.0414
      9 C          63.4087   86.3847   15.7267 C.ar    1  UNL1        0.1645
     10 O          63.7574   87.8212   15.9817 O.2     1  UNL1       -0.4378
     11 C          63.3127   84.5305   12.2191 C.ar    1  UNL1        0.0037
     12 C          62.5288   85.3792   11.2625 C.ar    1  UNL1        0.0001
     13 C          62.6286   85.1329    9.7863 C.ar    1  UNL1        0.0000
     14 C          63.5123   84.0379    9.2667 C.ar    1  UNL1        0.0000
     15 C          64.2962   83.1891   10.2233 C.ar    1  UNL1        0.0000
     16 C          64.1963   83.4355   11.6996 C.ar    1  UNL1        0.0001
     17 C          64.4717   89.8932   14.4515 C.3     1  UNL1        0.2065
     18 O          61.5324   90.6061   10.2262 O.2     1  UNL1       -0.2422
     19 C          62.7792   90.9013   11.0063 C.2     1  UNL1        0.3644
     20 C          63.8030   91.8481   10.4538 C.3     1  UNL1        0.2333
     21 C          65.0497   92.1434   11.2339 C.2     1  UNL1        0.3159
     22 N          65.2726   91.4916   12.5665 N.2     1  UNL1       -0.0039
     23 C          64.2487   90.5448   13.1189 C.2     1  UNL1        0.3581
     24 N          63.0020   90.2496   12.3388 N.am    1  UNL1        0.0289
     25 N          66.0736   93.0902   10.6814 N.pl3   1  UNL1       -0.1888
     26 C          65.8897   94.5703   10.8413 C.3     1  UNL1        0.2343
     27 C          66.9135   95.5172   10.2888 C.3     1  UNL1        0.1929
     28 O          68.1212   94.9839    9.5764 O.3     1  UNL1       -0.3449
     29 C          68.3050   93.5038    9.4166 C.3     1  UNL1        0.1929
     30 C          67.2811   92.5570    9.9691 C.3     1  UNL1        0.2343
@<TRIPOS>BOND
     1    18    19    2
     2    19    20    1
     3    20    21    1
     4    21    25    1
     5    25    26    1
     6    26    27    1
     7    27    28    1
     8    28    29    1
     9    29    30    1
    10    21    22    2
    11    22    23    1
    12    23    17    1
    13    17     1    1
    14     1     2   ar
    15     2     3   ar
    16     3     4   ar
    17     4    11    1
    18    11    12   ar
    19    12    13   ar
    20    13    14   ar
    21    14    15   ar
    22    15    16   ar
    23     4     5   ar
    24     5     6    1
    25     5     7   ar
    26     7     8   ar
    27     8     9   ar
    28     9    10   ar
    29    23    24    2
    30    24    19    1
    31    30    25    1
    32    10     1   ar
    33     9     3   ar
    34    16    11   ar
@<TRIPOS>MOLECULE
*****
 30 34 0 0 0
SMALL
GASTEIGER

@<TRIPOS>ATOM
      1 C          62.5050   90.1763   10.9789 C.ar    1  UNL1        0.2182
      2 N          62.6666   88.6914   10.8413 N.ar    1  UNL1       -0.2115
      3 C          61.6926   88.2131    9.8057 C.ar    1  UNL1        0.1207
      4 C          61.4024   86.8483    9.2553 C.ar    1  UNL1        0.0482
      5 C          60.3485   86.6728    8.2023 C.ar    1  UNL1        0.1417
      6 F          60.0582   85.3079    7.6519 F       1  UNL1       -0.2041
      7 C          59.5850   87.8621    7.6998 C.ar    1  UNL1        0.0329
      8 C          59.8753   89.2269    8.2502 C.ar    1  UNL1        0.0414
      9 C          60.9291   89.4025    9.3031 C.ar    1  UNL1        0.1645
     10 O          61.4312   90.6158   10.0282 O.2     1  UNL1       -0.4378
     11 C          62.1659   85.6589    9.7578 C.ar    1  UNL1        0.0037
     12 C          61.9689   85.1815   11.1660 C.ar    1  UNL1        0.0001
     13 C          62.7324   83.9921   11.6684 C.ar    1  UNL1        0.0000
     14 C          63.6929   83.2802   10.7625 C.ar    1  UNL1        0.0000
     15 C          63.8899   83.7576    9.3543 C.ar    1  UNL1        0.0000
     16 C          63.1264   84.9470    8.8519 C.ar    1  UNL1        0.0001
     17 C          63.2810   91.0656   11.9046 C.3     1  UNL1        0.2065
     18 O          64.2142   92.3105   16.8623 O.2     1  UNL1       -0.2422
     19 C          63.9769   91.2720   15.8063 C.2     1  UNL1        0.3644
     20 C          63.9687   89.8176   16.1730 C.3     1  UNL1        0.2333
     21 C          63.7314   88.7791   15.1169 C.2     1  UNL1        0.3159
     22 N          63.5022   89.1952   13.6941 N.2     1  UNL1       -0.0039
     23 C          63.5103   90.6496   13.3274 C.2     1  UNL1        0.3581
     24 N          63.7476   91.6881   14.3835 N.am    1  UNL1        0.0289
     25 N          63.7233   87.3246   15.4837 N.pl3   1  UNL1       -0.1888
     26 C          63.0573   86.8742   16.7501 C.3     1  UNL1        0.2343
     27 C          63.0492   85.4198   17.1168 C.3     1  UNL1        0.1929
     28 O          63.7070   84.4158   16.2172 O.3     1  UNL1       -0.3449
     29 C          64.3730   84.8662   14.9508 C.3     1  UNL1        0.1929
     30 C          64.3811   86.3207   14.5841 C.3     1  UNL1        0.2343
@<TRIPOS>BOND
     1    18    19    2
     2    19    20    1
     3    20    21    1
     4    21    25    1
     5    25    26    1
     6    26    27    1
     7    27    28    1
     8    28    29    1
     9    29    30    1
    10    21    22    2
    11    22    23    1
    12    23    17    1
    13    17     1    1
    14     1     2   ar
    15     2     3   ar
    16     3     4   ar
    17     4    11    1
    18    11    12   ar
    19    12    13   ar
    20    13    14   ar
    21    14    15   ar
    22    15    16   ar
    23     4     5   ar
    24     5     6    1
    25     5     7   ar
    26     7     8   ar
    27     8     9   ar
    28     9    10   ar
    29    23    24    2
    30    24    19    1
    31    30    25    1
    32    10     1   ar
    33     9     3   ar
    34    16    11   ar
@<TRIPOS>MOLECULE
*****
 30 34 0 0 0
SMALL
GASTEIGER

@<TRIPOS>ATOM
      1 C          63.5711   89.2623   13.5758 C.ar    1  UNL1        0.2182
      2 N          63.6171   87.9015   12.9467 N.ar    1  UNL1       -0.2115
      3 C          63.6356   86.8824   14.0472 C.ar    1  UNL1        0.1207
      4 C          63.6794   85.3832   14.0262 C.ar    1  UNL1        0.0482
      5 C          63.6887   84.6151   15.3147 C.ar    1  UNL1        0.1417
      6 F          63.7325   83.1158   15.2937 F       1  UNL1       -0.2041
      7 C          63.6541   85.3462   16.6239 C.ar    1  UNL1        0.0329
      8 C          63.6103   86.8454   16.6449 C.ar    1  UNL1        0.0414
      9 C          63.6010   87.6135   15.3566 C.ar    1  UNL1        0.1645
     10 O          63.5612   89.0844   15.0652 O.2     1  UNL1       -0.4378
     11 C          63.7139   84.6521   12.7169 C.ar    1  UNL1        0.0037
     12 C          64.6163   83.4665   12.5436 C.ar    1  UNL1        0.0001
     13 C          64.6508   82.7354   11.2342 C.ar    1  UNL1        0.0000
     14 C          63.7829   83.1899   10.0984 C.ar    1  UNL1        0.0000
     15 C          62.8806   84.3755   10.2717 C.ar    1  UNL1        0.0000
     16 C          62.8461   85.1066   11.5810 C.ar    1  UNL1        0.0001
     17 C          63.5404   90.5714   12.8441 C.3     1  UNL1        0.2065
     18 O          66.8225   92.8954   16.1346 O.2     1  UNL1       -0.2422
     19 C          66.2311   92.7697   14.7618 C.2     1  UNL1        0.3644
     20 C          66.6895   93.6804   13.6615 C.3     1  UNL1        0.2333
     21 C          66.0981   93.5547   12.2887 C.2     1  UNL1        0.3159
     22 N          65.0484   92.5183   12.0163 N.2     1  UNL1       -0.0039
     23 C          64.5901   91.6077   13.1166 C.2     1  UNL1        0.3581
     24 N          65.1815   91.7334   14.4894 N.am    1  UNL1        0.0289
     25 N          66.5565   94.4654   11.1884 N.pl3   1  UNL1       -0.1888
     26 C          66.3348   95.9449   11.2982 C.3     1  UNL1        0.2343
     27 C          66.7931   96.8555   10.1979 C.3     1  UNL1        0.1929
     28 O          67.4731   96.2866    8.9878 O.3     1  UNL1       -0.3449
     29 C          67.6947   94.8072    8.8781 C.3     1  UNL1        0.1929
     30 C          67.2364   93.8965    9.9784 C.3     1  UNL1        0.2343
@<TRIPOS>BOND
     1    18    19    2
     2    19    20    1
     3    20    21    1
     4    21    25    1
     5    25    26    1
     6    26    27    1
     7    27    28    1
     8    28    29    1
     9    29    30    1
    10    21    22    2
    11    22    23    1
    12    23    17    1
    13    17     1    1
    14     1     2   ar
    15     2     3   ar
    16     3     4   ar
    17     4    11    1
    18    11    12   ar
    19    12    13   ar
    20    13    14   ar
    21    14    15   ar
    22    15    16   ar
    23     4     5   ar
    24     5     6    1
    25     5     7   ar
    26     7     8   ar
    27     8     9   ar
    28     9    10   ar
    29    23    24    2
    30    24    19    1
    31    30    25    1
    32    10     1   ar
    33     9     3   ar
    34    16    11   ar
@<TRIPOS>MOLECULE
*****
 30 34 0 0 0
SMALL
GASTEIGER

@<TRIPOS>ATOM
      1 C          63.7770   86.3413   14.7755 C.ar    1  UNL1        0.2182
      2 N          63.3805   86.1247   13.3452 N.ar    1  UNL1       -0.2115
      3 C          63.4160   84.6501   13.0726 C.ar    1  UNL1        0.1207
      4 C          63.1213   83.8502   11.8384 C.ar    1  UNL1        0.0482
      5 C          63.2451   82.3555   11.8661 C.ar    1  UNL1        0.1417
      6 F          62.9505   81.5556   10.6318 F       1  UNL1       -0.2041
      7 C          63.6635   81.6609   13.1279 C.ar    1  UNL1        0.0329
      8 C          63.9582   82.4608   14.3621 C.ar    1  UNL1        0.0414
      9 C          63.8344   83.9554   14.3345 C.ar    1  UNL1        0.1645
     10 O          64.0575   85.0006   15.3870 O.2     1  UNL1       -0.4378
     11 C          62.7029   84.5449   10.5765 C.ar    1  UNL1        0.0037
     12 C          61.5327   85.4831   10.5895 C.ar    1  UNL1        0.0001
     13 C          61.1143   86.1777    9.3275 C.ar    1  UNL1        0.0000
     14 C          61.8662   85.9340    8.0527 C.ar    1  UNL1        0.0000
     15 C          63.0364   84.9958    8.0397 C.ar    1  UNL1        0.0000
     16 C          63.4548   84.3012    9.3016 C.ar    1  UNL1        0.0001
     17 C          63.8757   87.6661   15.4721 C.3     1  UNL1        0.2065
     18 O          62.5365   90.9658   11.6882 O.2     1  UNL1       -0.2422
     19 C          63.4727   90.5618   12.7884 C.2     1  UNL1        0.3644
     20 C          64.6754   91.4034   13.0967 C.3     1  UNL1        0.2333
     21 C          65.6116   90.9994   14.1968 C.2     1  UNL1        0.3159
     22 N          65.3449   89.7535   14.9886 N.2     1  UNL1       -0.0039
     23 C          64.1422   88.9118   14.6803 C.2     1  UNL1        0.3581
     24 N          63.2061   89.3160   13.5801 N.am    1  UNL1        0.0289
     25 N          66.8143   91.8410   14.5051 N.pl3   1  UNL1       -0.1888
     26 C          66.7573   92.8544   15.6096 C.3     1  UNL1        0.2343
     27 C          67.9600   93.6961   15.9179 C.3     1  UNL1        0.1929
     28 O          69.2197   93.5244   15.1217 O.3     1  UNL1       -0.3449
     29 C          69.2766   92.5110   14.0172 C.3     1  UNL1        0.1929
     30 C          68.0739   91.6694   13.7089 C.3     1  UNL1        0.2343
@<TRIPOS>BOND
     1    18    19    2
     2    19    20    1
     3    20    21    1
     4    21    25    1
     5    25    26    1
     6    26    27    1
     7    27    28    1
     8    28    29    1
     9    29    30    1
    10    21    22    2
    11    22    23    1
    12    23    17    1
    13    17     1    1
    14     1     2   ar
    15     2     3   ar
    16     3     4   ar
    17     4    11    1
    18    11    12   ar
    19    12    13   ar
    20    13    14   ar
    21    14    15   ar
    22    15    16   ar
    23     4     5   ar
    24     5     6    1
    25     5     7   ar
    26     7     8   ar
    27     8     9   ar
    28     9    10   ar
    29    23    24    2
    30    24    19    1
    31    30    25    1
    32    10     1   ar
    33     9     3   ar
    34    16    11   ar
@<TRIPOS>MOLECULE
*****
 30 34 0 0 0
SMALL
GASTEIGER

@<TRIPOS>ATOM
      1 C          62.3434   88.7698   11.1359 C.ar    1  UNL1        0.2182
      2 N          62.5846   87.5548   11.9819 N.ar    1  UNL1       -0.2115
      3 C          62.7206   86.3733   11.0679 C.ar    1  UNL1        0.1207
      4 C          62.9673   84.9186   11.3381 C.ar    1  UNL1        0.0482
      5 C          63.0569   83.9486   10.1974 C.ar    1  UNL1        0.1417
      6 F          63.3036   82.4938   10.4676 F       1  UNL1       -0.2041
      7 C          62.8998   84.4332    8.7867 C.ar    1  UNL1        0.0329
      8 C          62.6531   85.8879    8.5164 C.ar    1  UNL1        0.0414
      9 C          62.5636   86.8579    9.6571 C.ar    1  UNL1        0.1645
     10 O          62.3304   88.3391    9.6991 O.2     1  UNL1       -0.4378
     11 C          63.1244   84.4338   12.7489 C.ar    1  UNL1        0.0037
     12 C          62.4093   83.1949   13.2003 C.ar    1  UNL1        0.0001
     13 C          62.5665   82.7102   14.6111 C.ar    1  UNL1        0.0000
     14 C          63.4387   83.4644   15.5705 C.ar    1  UNL1        0.0000
     15 C          64.1538   84.7033   15.1191 C.ar    1  UNL1        0.0000
     16 C          63.9967   85.1880   13.7083 C.ar    1  UNL1        0.0001
     17 C          62.1492   90.1697   11.6384 C.3     1  UNL1        0.2065
     18 O          64.9800   91.7815   15.6868 O.2     1  UNL1       -0.2422
     19 C          64.7309   91.7452   14.2080 C.2     1  UNL1        0.3644
     20 C          65.6482   92.4784   13.2747 C.3     1  UNL1        0.2333
     21 C          65.3992   92.4421   11.7960 C.2     1  UNL1        0.3159
     22 N          64.2328   91.6725   11.2506 N.2     1  UNL1       -0.0039
     23 C          63.3155   90.9393   12.1839 C.2     1  UNL1        0.3581
     24 N          63.5646   90.9756   13.6626 N.am    1  UNL1        0.0289
     25 N          66.3164   93.1753   10.8627 N.pl3   1  UNL1       -0.1888
     26 C          67.4116   92.4359   10.1529 C.3     1  UNL1        0.2343
     27 C          68.3289   93.1691    9.2196 C.3     1  UNL1        0.1929
     28 O          68.1509   94.6418    8.9962 O.3     1  UNL1       -0.3449
     29 C          67.0557   95.3811    9.7061 C.3     1  UNL1        0.1929
     30 C          66.1384   94.6479   10.6394 C.3     1  UNL1        0.2343
@<TRIPOS>BOND
     1    18    19    2
     2    19    20    1
     3    20    21    1
     4    21    25    1
     5    25    26    1
     6    26    27    1
     7    27    28    1
     8    28    29    1
     9    29    30    1
    10    21    22    2
    11    22    23    1
    12    23    17    1
    13    17     1    1
    14     1     2   ar
    15     2     3   ar
    16     3     4   ar
    17     4    11    1
    18    11    12   ar
    19    12    13   ar
    20    13    14   ar
    21    14    15   ar
    22    15    16   ar
    23     4     5   ar
    24     5     6    1
    25     5     7   ar
    26     7     8   ar
    27     8     9   ar
    28     9    10   ar
    29    23    24    2
    30    24    19    1
    31    30    25    1
    32    10     1   ar
    33     9     3   ar
    34    16    11   ar
