@<TRIPOS>MOLECULE
*****
 35 39 0 0 0
SMALL
GASTEIGER

@<TRIPOS>ATOM
      1 O          64.4710   88.0339   12.8851 O.2     1  UNL1       -0.2522
      2 C          64.2345   88.1503   14.3618 C.2     1  UNL1        0.3082
      3 N          63.8038   86.9487   15.1494 N.am    1  UNL1       -0.2681
      4 N          64.4287   89.4686   15.0508 N.am    1  UNL1       -0.2681
      5 H          63.6486   87.0251   16.1185 H       1  UNL1        0.1564
      6 H          64.2735   89.5450   16.0200 H       1  UNL1        0.1564
      7 C          63.6096   85.6305   14.4604 C.ar    1  UNL1        0.0516
      8 C          63.0769   85.5882   13.0588 C.ar    1  UNL1        0.0147
      9 C          62.8826   84.2700   12.3697 C.ar    1  UNL1        0.0013
     10 C          63.2211   82.9942   13.0823 C.ar    1  UNL1        0.0001
     11 C          63.7538   83.0365   14.4840 C.ar    1  UNL1        0.0013
     12 C          63.9480   84.3547   15.1730 C.ar    1  UNL1        0.0147
     13 C          63.0268   81.6761   12.3933 C.ar    1  UNL1        0.0002
     14 C          62.6283   80.4668   13.1865 C.ar    1  UNL1        0.0031
     15 C          62.4341   79.1486   12.4975 C.ar    1  UNL1        0.0366
     16 C          62.6384   79.0397   11.0155 C.ar    1  UNL1        0.1337
     17 O          62.4441   77.7215   10.3265 O.3     1  UNL1       -0.5055
     18 C          63.0369   80.2489   10.2224 C.ar    1  UNL1        0.0366
     19 C          63.2311   81.5671   10.9113 C.ar    1  UNL1        0.0031
     20 H          62.1952   76.9661   10.8219 H       1  UNL1        0.2922
     21 C          64.8594   90.6702   14.2632 C.ar    1  UNL1        0.0516
     22 C          64.1997   90.9843   12.9531 C.ar    1  UNL1        0.0147
     23 C          64.6304   92.1859   12.1656 C.ar    1  UNL1        0.0010
     24 C          65.7209   93.0737   12.6880 C.ar    1  UNL1       -0.0014
     25 C          66.3806   92.7597   13.9980 C.ar    1  UNL1        0.0010
     26 C          65.9498   91.5580   14.7856 C.ar    1  UNL1        0.0147
     27 C          66.1516   94.2754   11.9003 C.2     1  UNL1        0.0158
     28 C          65.8457   95.6536   12.4074 C.2     1  UNL1        0.0487
     29 C          66.2764   96.8552   11.6198 C.2     1  UNL1        0.2355
     30 N          67.0129   96.6789   10.3250 N.2     1  UNL1       -0.0325
     31 C          67.3188   95.3007    9.8179 C.2     1  UNL1        0.3799
     32 N          68.0242   94.8185    8.5851 N.2     1  UNL1       -0.0106
     33 C          68.0295   93.3187    8.6109 C.2     1  UNL1        0.3351
     34 N          67.3274   92.8740    9.8596 N.2     1  UNL1       -0.2103
     35 C          66.8881   94.0990   10.6056 C.3     1  UNL1        0.2404
@<TRIPOS>BOND
     1     1     2    2
     2     2     3   am
     3     3     7    1
     4     7     8   ar
     5     8     9   ar
     6     9    10   ar
     7    10    13    1
     8    13    14   ar
     9    14    15   ar
    10    15    16   ar
    11    16    17    1
    12    16    18   ar
    13    18    19   ar
    14    10    11   ar
    15    11    12   ar
    16     2     4   am
    17     4    21    1
    18    21    22   ar
    19    22    23   ar
    20    23    24   ar
    21    24    27    1
    22    27    28    2
    23    28    29    1
    24    29    30    2
    25    30    31    1
    26    31    32    2
    27    32    33    1
    28    33    34    2
    29    34    35    1
    30    24    25   ar
    31    25    26   ar
    32    12     7   ar
    33    26    21   ar
    34    19    13   ar
    35    35    27    1
    36    35    31    1
    37     3     5    1
    38    17    20    1
    39     4     6    1
@<TRIPOS>MOLECULE
*****
 35 39 0 0 0
SMALL
GASTEIGER

@<TRIPOS>ATOM
      1 O          61.1913   90.1269    5.1798 O.2     1  UNL1       -0.2522
      2 C          59.8315   90.6142    5.5841 C.2     1  UNL1        0.3082
      3 N          59.1669   90.0540    6.8064 N.am    1  UNL1       -0.2681
      4 N          59.1364   91.6619    4.7659 N.am    1  UNL1       -0.2681
      5 H          58.2744   90.3738    7.0717 H       1  UNL1        0.1564
      6 H          58.2439   91.9818    5.0313 H       1  UNL1        0.1564
      7 C          59.8620   89.0063    7.6246 C.ar    1  UNL1        0.0516
      8 C          60.6930   89.4074    8.8071 C.ar    1  UNL1        0.0147
      9 C          61.3881   88.3598    9.6253 C.ar    1  UNL1        0.0013
     10 C          61.2522   86.9111    9.2609 C.ar    1  UNL1        0.0001
     11 C          60.4211   86.5100    8.0782 C.ar    1  UNL1        0.0013
     12 C          59.7260   87.5577    7.2601 C.ar    1  UNL1        0.0147
     13 C          61.9472   85.8636   10.0790 C.ar    1  UNL1        0.0002
     14 C          62.8473   84.8660    9.4119 C.ar    1  UNL1        0.0031
     15 C          63.5424   83.8183   10.2301 C.ar    1  UNL1        0.0366
     16 C          63.3374   83.7682   11.7151 C.ar    1  UNL1        0.1337
     17 O          64.0325   82.7206   12.5332 O.3     1  UNL1       -0.5055
     18 C          62.4374   84.7658   12.3821 C.ar    1  UNL1        0.0366
     19 C          61.7423   85.8134   11.5641 C.ar    1  UNL1        0.0031
     20 H          64.5948   82.0974   12.1166 H       1  UNL1        0.2922
     21 C          59.8010   92.2222    3.5436 C.ar    1  UNL1        0.0516
     22 C          61.2980   92.2573    3.4532 C.ar    1  UNL1        0.0147
     23 C          61.9626   92.8176    2.2309 C.ar    1  UNL1        0.0010
     24 C          61.1304   93.3428    1.0987 C.ar    1  UNL1       -0.0014
     25 C          59.6335   93.3077    1.1890 C.ar    1  UNL1        0.0010
     26 C          58.9689   92.7474    2.4115 C.ar    1  UNL1        0.0147
     27 C          61.7951   93.9031   -0.1236 C.2     1  UNL1        0.0158
     28 C          61.2574   93.5775   -1.4856 C.2     1  UNL1        0.0487
     29 C          61.9221   94.1378   -2.7079 C.2     1  UNL1        0.2355
     30 N          63.1245   95.0237   -2.5684 N.2     1  UNL1       -0.0325
     31 C          63.6621   95.3493   -1.2065 C.2     1  UNL1        0.3799
     32 N          64.8230   96.1877   -0.7598 N.2     1  UNL1       -0.0106
     33 C          64.8757   96.1456    0.7387 C.2     1  UNL1        0.3351
     34 N          63.7475   95.2812    1.2181 N.2     1  UNL1       -0.2103
     35 C          62.9974   94.7890    0.0159 C.3     1  UNL1        0.2404
@<TRIPOS>BOND
     1     1     2    2
     2     2     3   am
     3     3     7    1
     4     7     8   ar
     5     8     9   ar
     6     9    10   ar
     7    10    13    1
     8    13    14   ar
     9    14    15   ar
    10    15    16   ar
    11    16    17    1
    12    16    18   ar
    13    18    19   ar
    14    10    11   ar
    15    11    12   ar
    16     2     4   am
    17     4    21    1
    18    21    22   ar
    19    22    23   ar
    20    23    24   ar
    21    24    27    1
    22    27    28    2
    23    28    29    1
    24    29    30    2
    25    30    31    1
    26    31    32    2
    27    32    33    1
    28    33    34    2
    29    34    35    1
    30    24    25   ar
    31    25    26   ar
    32    12     7   ar
    33    26    21   ar
    34    19    13   ar
    35    35    27    1
    36    35    31    1
    37     3     5    1
    38    17    20    1
    39     4     6    1
@<TRIPOS>MOLECULE
*****
 35 39 0 0 0
SMALL
GASTEIGER

@<TRIPOS>ATOM
      1 O          61.1573   90.0648    5.2975 O.2     1  UNL1       -0.2522
      2 C          59.8115   90.5461    5.7524 C.2     1  UNL1        0.3082
      3 N          59.1871   89.9695    6.9883 N.am    1  UNL1       -0.2681
      4 N          59.0900   91.6042    4.9712 N.am    1  UNL1       -0.2681
      5 H          58.3037   90.2854    7.2868 H       1  UNL1        0.1564
      6 H          58.2066   91.9201    5.2697 H       1  UNL1        0.1564
      7 C          59.9086   88.9115    7.7694 C.ar    1  UNL1        0.0516
      8 C          60.8081   89.3002    8.9051 C.ar    1  UNL1        0.0147
      9 C          61.5296   88.2422    9.6863 C.ar    1  UNL1        0.0013
     10 C          61.3515   86.7956    9.3318 C.ar    1  UNL1        0.0001
     11 C          60.4520   86.4070    8.1960 C.ar    1  UNL1        0.0013
     12 C          59.7305   87.4650    7.4148 C.ar    1  UNL1        0.0147
     13 C          62.0730   85.7377   10.1128 C.ar    1  UNL1        0.0002
     14 C          62.9936   84.7839    9.4108 C.ar    1  UNL1        0.0031
     15 C          63.7151   83.7258   10.1920 C.ar    1  UNL1        0.0366
     16 C          63.5159   83.6217   11.6750 C.ar    1  UNL1        0.1337
     17 O          64.2374   82.5636   12.4561 O.3     1  UNL1       -0.5055
     18 C          62.5953   84.5754   12.3770 C.ar    1  UNL1        0.0366
     19 C          61.8738   85.6334   11.5959 C.ar    1  UNL1        0.0031
     20 H          64.8125   81.9678   12.0176 H       1  UNL1        0.2922
     21 C          59.7143   92.1808    3.7353 C.ar    1  UNL1        0.0516
     22 C          61.2077   92.2280    3.6014 C.ar    1  UNL1        0.0147
     23 C          61.8320   92.8046    2.3656 C.ar    1  UNL1        0.0010
     24 C          60.9631   93.3341    1.2634 C.ar    1  UNL1       -0.0014
     25 C          59.4699   93.2870    1.3972 C.ar    1  UNL1        0.0010
     26 C          58.8455   92.7103    2.6332 C.ar    1  UNL1        0.0147
     27 C          61.5876   93.9108    0.0274 C.2     1  UNL1        0.0158
     28 C          62.9115   94.6107    0.1126 C.2     1  UNL1        0.0487
     29 C          63.5359   95.1873   -1.1232 C.2     1  UNL1        0.2355
     30 N          62.8364   95.0641   -2.4445 N.2     1  UNL1       -0.0325
     31 C          61.5125   94.3643   -2.5297 C.2     1  UNL1        0.3799
     32 N          60.5943   94.0905   -3.6839 N.2     1  UNL1       -0.0106
     33 C          59.4025   93.3447   -3.1612 C.2     1  UNL1        0.3351
     34 N          59.5840   93.1575   -1.6841 N.2     1  UNL1       -0.2103
     35 C          60.8880   93.7876   -1.2937 C.3     1  UNL1        0.2404
@<TRIPOS>BOND
     1     1     2    2
     2     2     3   am
     3     3     7    1
     4     7     8   ar
     5     8     9   ar
     6     9    10   ar
     7    10    13    1
     8    13    14   ar
     9    14    15   ar
    10    15    16   ar
    11    16    17    1
    12    16    18   ar
    13    18    19   ar
    14    10    11   ar
    15    11    12   ar
    16     2     4   am
    17     4    21    1
    18    21    22   ar
    19    22    23   ar
    20    23    24   ar
    21    24    27    1
    22    27    28    2
    23    28    29    1
    24    29    30    2
    25    30    31    1
    26    31    32    2
    27    32    33    1
    28    33    34    2
    29    34    35    1
    30    24    25   ar
    31    25    26   ar
    32    12     7   ar
    33    26    21   ar
    34    19    13   ar
    35    35    27    1
    36    35    31    1
    37     3     5    1
    38    17    20    1
    39     4     6    1
@<TRIPOS>MOLECULE
*****
 35 39 0 0 0
SMALL
GASTEIGER

@<TRIPOS>ATOM
      1 O          61.3261   91.9713    1.7699 O.2     1  UNL1       -0.2522
      2 C          60.4163   93.1524    1.9344 C.2     1  UNL1        0.3082
      3 N          60.4013   94.2376    0.8991 N.am    1  UNL1       -0.2681
      4 N          59.5213   93.2482    3.1344 N.am    1  UNL1       -0.2681
      5 H          59.8041   95.0128    1.0071 H       1  UNL1        0.1564
      6 H          58.9241   94.0234    3.2425 H       1  UNL1        0.1564
      7 C          61.2963   94.1418   -0.3009 C.ar    1  UNL1        0.0516
      8 C          62.7567   94.4596   -0.1745 C.ar    1  UNL1        0.0147
      9 C          63.6517   94.3639   -1.3744 C.ar    1  UNL1        0.0013
     10 C          63.0863   93.9502   -2.7008 C.ar    1  UNL1        0.0001
     11 C          61.6257   93.6323   -2.8272 C.ar    1  UNL1        0.0013
     12 C          60.7307   93.7281   -1.6271 C.ar    1  UNL1        0.0147
     13 C          63.9811   93.8544   -3.9007 C.ar    1  UNL1        0.0002
     14 C          64.3475   92.5106   -4.4576 C.ar    1  UNL1        0.0031
     15 C          65.2425   92.4148   -5.6576 C.ar    1  UNL1        0.0366
     16 C          65.7710   93.6627   -6.3006 C.ar    1  UNL1        0.1337
     17 O          66.6659   93.5669   -7.5006 O.3     1  UNL1       -0.5055
     18 C          65.4046   95.0064   -5.7437 C.ar    1  UNL1        0.0366
     19 C          64.5097   95.1023   -4.5437 C.ar    1  UNL1        0.0031
     20 H          66.8948   92.7275   -7.8485 H       1  UNL1        0.2922
     21 C          59.5362   92.1630    4.1697 C.ar    1  UNL1        0.0516
     22 C          58.2546   91.7216    4.8123 C.ar    1  UNL1        0.0147
     23 C          58.2696   90.6364    5.8476 C.ar    1  UNL1        0.0010
     24 C          59.5662   89.9924    6.2405 C.ar    1  UNL1       -0.0014
     25 C          60.8477   90.4337    5.5980 C.ar    1  UNL1        0.0010
     26 C          60.8327   91.5190    4.5626 C.ar    1  UNL1        0.0147
     27 C          59.5811   88.9072    7.2759 C.2     1  UNL1        0.0158
     28 C          59.2529   87.4959    6.8879 C.2     1  UNL1        0.0487
     29 C          59.2678   86.4107    7.9232 C.2     1  UNL1        0.2355
     30 N          59.6109   86.7366    9.3466 N.2     1  UNL1       -0.0325
     31 C          59.9391   88.1479    9.7346 C.2     1  UNL1        0.3799
     32 N          60.3123   88.7665   11.0492 N.2     1  UNL1       -0.0106
     33 C          60.5280   90.2340   10.8262 C.2     1  UNL1        0.3351
     34 N          60.2882   90.5225    9.3739 N.2     1  UNL1       -0.2103
     35 C          59.9242   89.2332    8.6992 C.3     1  UNL1        0.2404
@<TRIPOS>BOND
     1     1     2    2
     2     2     3   am
     3     3     7    1
     4     7     8   ar
     5     8     9   ar
     6     9    10   ar
     7    10    13    1
     8    13    14   ar
     9    14    15   ar
    10    15    16   ar
    11    16    17    1
    12    16    18   ar
    13    18    19   ar
    14    10    11   ar
    15    11    12   ar
    16     2     4   am
    17     4    21    1
    18    21    22   ar
    19    22    23   ar
    20    23    24   ar
    21    24    27    1
    22    27    28    2
    23    28    29    1
    24    29    30    2
    25    30    31    1
    26    31    32    2
    27    32    33    1
    28    33    34    2
    29    34    35    1
    30    24    25   ar
    31    25    26   ar
    32    12     7   ar
    33    26    21   ar
    34    19    13   ar
    35    35    27    1
    36    35    31    1
    37     3     5    1
    38    17    20    1
    39     4     6    1
@<TRIPOS>MOLECULE
*****
 35 39 0 0 0
SMALL
GASTEIGER

@<TRIPOS>ATOM
      1 O          61.4278   92.0472    1.3165 O.2     1  UNL1       -0.2522
      2 C          60.4094   93.1485    1.3236 C.2     1  UNL1        0.3082
      3 N          59.4740   93.2976    2.4866 N.am    1  UNL1       -0.2681
      4 N          60.3265   94.1007    0.1674 N.am    1  UNL1       -0.2681
      5 H          58.8056   94.0204    2.4911 H       1  UNL1        0.1564
      6 H          59.6581   94.8235    0.1720 H       1  UNL1        0.1564
      7 C          59.5569   92.3454    3.6427 C.ar    1  UNL1        0.0516
      8 C          60.8938   91.8646    4.1239 C.ar    1  UNL1        0.0147
      9 C          60.9768   90.9125    5.2799 C.ar    1  UNL1        0.0013
     10 C          59.7229   90.4411    5.9548 C.ar    1  UNL1        0.0001
     11 C          58.3859   90.9219    5.4736 C.ar    1  UNL1        0.0013
     12 C          58.3030   91.8741    4.3175 C.ar    1  UNL1        0.0147
     13 C          59.8058   89.4890    7.1109 C.ar    1  UNL1        0.0002
     14 C          60.4345   89.9278    8.4002 C.ar    1  UNL1        0.0031
     15 C          60.5174   88.9756    9.5564 C.ar    1  UNL1        0.0366
     16 C          59.9716   87.5848    9.4231 C.ar    1  UNL1        0.1337
     17 O          60.0545   86.6326   10.5792 O.3     1  UNL1       -0.5055
     18 C          59.3430   87.1461    8.1338 C.ar    1  UNL1        0.0366
     19 C          59.2600   88.0982    6.9777 C.ar    1  UNL1        0.0031
     20 H          60.4472   86.9067   11.3846 H       1  UNL1        0.2922
     21 C          61.2618   93.9516   -0.9956 C.ar    1  UNL1        0.0516
     22 C          62.7450   93.9993   -0.7762 C.ar    1  UNL1        0.0147
     23 C          63.6804   93.8501   -1.9392 C.ar    1  UNL1        0.0010
     24 C          63.1327   93.6534   -3.3218 C.ar    1  UNL1       -0.0014
     25 C          61.6496   93.6057   -3.5412 C.ar    1  UNL1        0.0010
     26 C          60.7142   93.7548   -2.3781 C.ar    1  UNL1        0.0147
     27 C          64.0682   93.5043   -4.4848 C.2     1  UNL1        0.0158
     28 C          64.2332   92.1691   -5.1482 C.2     1  UNL1        0.0487
     29 C          65.1686   92.0200   -6.3112 C.2     1  UNL1        0.2355
     30 N          65.9391   93.2060   -6.8109 N.2     1  UNL1       -0.0325
     31 C          65.7741   94.5412   -6.1475 C.2     1  UNL1        0.3799
     32 N          66.3957   95.8795   -6.4170 N.2     1  UNL1       -0.0106
     33 C          65.8444   96.8557   -5.4205 C.2     1  UNL1        0.3351
     34 N          64.8821   96.1208   -4.5352 N.2     1  UNL1       -0.2103
     35 C          64.8387   94.6903   -4.9845 C.3     1  UNL1        0.2404
@<TRIPOS>BOND
     1     1     2    2
     2     2     3   am
     3     3     7    1
     4     7     8   ar
     5     8     9   ar
     6     9    10   ar
     7    10    13    1
     8    13    14   ar
     9    14    15   ar
    10    15    16   ar
    11    16    17    1
    12    16    18   ar
    13    18    19   ar
    14    10    11   ar
    15    11    12   ar
    16     2     4   am
    17     4    21    1
    18    21    22   ar
    19    22    23   ar
    20    23    24   ar
    21    24    27    1
    22    27    28    2
    23    28    29    1
    24    29    30    2
    25    30    31    1
    26    31    32    2
    27    32    33    1
    28    33    34    2
    29    34    35    1
    30    24    25   ar
    31    25    26   ar
    32    12     7   ar
    33    26    21   ar
    34    19    13   ar
    35    35    27    1
    36    35    31    1
    37     3     5    1
    38    17    20    1
    39     4     6    1
@<TRIPOS>MOLECULE
*****
 35 39 0 0 0
SMALL
GASTEIGER

@<TRIPOS>ATOM
      1 O          64.4216   88.5981   13.5150 O.2     1  UNL1       -0.2522
      2 C          64.1995   89.0299   14.9343 C.2     1  UNL1        0.3082
      3 N          63.7210   88.0390   15.9535 N.am    1  UNL1       -0.2681
      4 N          64.4558   90.4528   15.3341 N.am    1  UNL1       -0.2681
      5 H          63.5752   88.3224   16.8850 H       1  UNL1        0.1564
      6 H          64.3100   90.7362   16.2656 H       1  UNL1        0.1564
      7 C          63.4647   86.6161   15.5537 C.ar    1  UNL1        0.0516
      8 C          62.5920   85.7432   16.4060 C.ar    1  UNL1        0.0147
      9 C          62.3356   84.3204   16.0062 C.ar    1  UNL1        0.0013
     10 C          62.9519   83.7705   14.7541 C.ar    1  UNL1        0.0001
     11 C          63.8247   84.6434   13.9018 C.ar    1  UNL1        0.0013
     12 C          64.0811   86.0663   14.3016 C.ar    1  UNL1        0.0147
     13 C          62.6956   82.3477   14.3543 C.ar    1  UNL1        0.0002
     14 C          63.8277   81.4875   13.8762 C.ar    1  UNL1        0.0031
     15 C          63.5713   80.0646   13.4763 C.ar    1  UNL1        0.0366
     16 C          62.1831   79.5021   13.5546 C.ar    1  UNL1        0.1337
     17 O          61.9267   78.0792   13.1548 O.3     1  UNL1       -0.5055
     18 C          61.0511   80.3622   14.0327 C.ar    1  UNL1        0.0366
     19 C          61.3073   81.7851   14.4326 C.ar    1  UNL1        0.0031
     20 H          62.6339   77.5418   12.8561 H       1  UNL1        0.2922
     21 C          64.9343   91.4437   14.3148 C.ar    1  UNL1        0.0516
     22 C          66.0134   92.4233   14.6699 C.ar    1  UNL1        0.0147
     23 C          66.4918   93.4142   13.6507 C.ar    1  UNL1        0.0010
     24 C          65.8912   93.4256   12.2761 C.ar    1  UNL1       -0.0014
     25 C          64.8122   92.4461   11.9210 C.ar    1  UNL1        0.0010
     26 C          64.3337   91.4551   12.9404 C.ar    1  UNL1        0.0147
     27 C          66.3697   94.4166   11.2568 C.2     1  UNL1        0.0158
     28 C          65.9983   95.8641   11.3860 C.2     1  UNL1        0.0487
     29 C          66.4768   96.8551   10.3668 C.2     1  UNL1        0.2355
     30 N          67.3267   96.3986    9.2182 N.2     1  UNL1       -0.0325
     31 C          67.6981   94.9511    9.0889 C.2     1  UNL1        0.3799
     32 N          68.5166   94.2119    8.0722 N.2     1  UNL1       -0.0106
     33 C          68.5439   92.7640    8.4632 C.2     1  UNL1        0.3351
     34 N          67.7424   92.6084    9.7215 N.2     1  UNL1       -0.2103
     35 C          67.2196   93.9601   10.1082 C.3     1  UNL1        0.2404
@<TRIPOS>BOND
     1     1     2    2
     2     2     3   am
     3     3     7    1
     4     7     8   ar
     5     8     9   ar
     6     9    10   ar
     7    10    13    1
     8    13    14   ar
     9    14    15   ar
    10    15    16   ar
    11    16    17    1
    12    16    18   ar
    13    18    19   ar
    14    10    11   ar
    15    11    12   ar
    16     2     4   am
    17     4    21    1
    18    21    22   ar
    19    22    23   ar
    20    23    24   ar
    21    24    27    1
    22    27    28    2
    23    28    29    1
    24    29    30    2
    25    30    31    1
    26    31    32    2
    27    32    33    1
    28    33    34    2
    29    34    35    1
    30    24    25   ar
    31    25    26   ar
    32    12     7   ar
    33    26    21   ar
    34    19    13   ar
    35    35    27    1
    36    35    31    1
    37     3     5    1
    38    17    20    1
    39     4     6    1
@<TRIPOS>MOLECULE
*****
 35 39 0 0 0
SMALL
GASTEIGER

@<TRIPOS>ATOM
      1 O          61.2782   90.6762    5.0640 O.2     1  UNL1       -0.2522
      2 C          59.8016   90.9315    5.1291 C.2     1  UNL1        0.3082
      3 N          59.1354   91.7556    4.0675 N.am    1  UNL1       -0.2681
      4 N          58.9911   90.3626    6.2559 N.am    1  UNL1       -0.2681
      5 H          58.1662   91.9231    4.1103 H       1  UNL1        0.1564
      6 H          58.0219   90.5302    6.2986 H       1  UNL1        0.1564
      7 C          59.9459   92.3244    2.9407 C.ar    1  UNL1        0.0516
      8 C          59.2597   92.8592    1.7188 C.ar    1  UNL1        0.0147
      9 C          60.0701   93.4280    0.5920 C.ar    1  UNL1        0.0013
     10 C          61.5667   93.4621    0.6871 C.ar    1  UNL1        0.0001
     11 C          62.2530   92.9273    1.9091 C.ar    1  UNL1        0.0013
     12 C          61.4425   92.3584    3.0359 C.ar    1  UNL1        0.0147
     13 C          62.3771   94.0309   -0.4396 C.ar    1  UNL1        0.0002
     14 C          61.9554   93.7962   -1.8599 C.ar    1  UNL1        0.0031
     15 C          62.7659   94.3650   -2.9867 C.ar    1  UNL1        0.0366
     16 C          63.9980   95.1685   -2.6932 C.ar    1  UNL1        0.1337
     17 O          64.8085   95.7374   -3.8200 O.3     1  UNL1       -0.5055
     18 C          64.4197   95.4032   -1.2730 C.ar    1  UNL1        0.0366
     19 C          63.6093   94.8344   -0.1462 C.ar    1  UNL1        0.0031
     20 H          64.5450   95.5908   -4.7071 H       1  UNL1        0.2922
     21 C          59.6572   89.5386    7.3174 C.ar    1  UNL1        0.0516
     22 C          60.4058   90.2113    8.4298 C.ar    1  UNL1        0.0147
     23 C          61.0719   89.3873    9.4913 C.ar    1  UNL1        0.0010
     24 C          60.9896   87.8903    9.4407 C.ar    1  UNL1       -0.0014
     25 C          60.2411   87.2175    8.3285 C.ar    1  UNL1        0.0010
     26 C          59.5749   88.0417    7.2669 C.ar    1  UNL1        0.0147
     27 C          61.6558   87.0662   10.5024 C.2     1  UNL1        0.0158
     28 C          61.5290   85.5718   10.4816 C.2     1  UNL1        0.0487
     29 C          62.1951   84.7477   11.5431 C.2     1  UNL1        0.2355
     30 N          62.9882   85.4181   12.6257 N.2     1  UNL1       -0.0325
     31 C          63.1150   86.9126   12.6464 C.2     1  UNL1        0.3799
     32 N          63.8260   87.8466   13.5803 N.2     1  UNL1       -0.0106
     33 C          63.5992   89.2479   13.0958 C.2     1  UNL1        0.3351
     34 N          62.7481   89.1800   11.8625 N.2     1  UNL1       -0.2103
     35 C          62.4488   87.7366   11.5848 C.3     1  UNL1        0.2404
@<TRIPOS>BOND
     1     1     2    2
     2     2     3   am
     3     3     7    1
     4     7     8   ar
     5     8     9   ar
     6     9    10   ar
     7    10    13    1
     8    13    14   ar
     9    14    15   ar
    10    15    16   ar
    11    16    17    1
    12    16    18   ar
    13    18    19   ar
    14    10    11   ar
    15    11    12   ar
    16     2     4   am
    17     4    21    1
    18    21    22   ar
    19    22    23   ar
    20    23    24   ar
    21    24    27    1
    22    27    28    2
    23    28    29    1
    24    29    30    2
    25    30    31    1
    26    31    32    2
    27    32    33    1
    28    33    34    2
    29    34    35    1
    30    24    25   ar
    31    25    26   ar
    32    12     7   ar
    33    26    21   ar
    34    19    13   ar
    35    35    27    1
    36    35    31    1
    37     3     5    1
    38    17    20    1
    39     4     6    1
@<TRIPOS>MOLECULE
*****
 35 39 0 0 0
SMALL
GASTEIGER

@<TRIPOS>ATOM
      1 O          60.9864   89.2189    7.1735 O.2     1  UNL1       -0.2522
      2 C          59.5016   89.0286    7.2697 C.2     1  UNL1        0.3082
      3 N          58.5877   89.7834    6.3506 N.am    1  UNL1       -0.2681
      4 N          58.9309   88.0835    8.2851 N.am    1  UNL1       -0.2681
      5 H          57.6132   89.6585    6.4137 H       1  UNL1        0.1564
      6 H          57.9564   87.9586    8.3483 H       1  UNL1        0.1564
      7 C          59.1584   90.7286    5.3351 C.ar    1  UNL1        0.0516
      8 C          60.6348   90.7426    5.0702 C.ar    1  UNL1        0.0147
      9 C          61.2056   91.6876    4.0548 C.ar    1  UNL1        0.0013
     10 C          60.3000   92.6187    3.3044 C.ar    1  UNL1        0.0001
     11 C          58.8236   92.6047    3.5694 C.ar    1  UNL1        0.0013
     12 C          58.2528   91.6596    4.5848 C.ar    1  UNL1        0.0147
     13 C          60.8707   93.5638    2.2890 C.ar    1  UNL1        0.0002
     14 C          60.1448   94.8333    1.9548 C.ar    1  UNL1        0.0031
     15 C          60.7156   95.7784    0.9393 C.ar    1  UNL1        0.0366
     16 C          62.0120   95.4541    0.2583 C.ar    1  UNL1        0.1337
     17 O          62.5828   96.3993   -0.7572 O.3     1  UNL1       -0.5055
     18 C          62.7379   94.1847    0.5925 C.ar    1  UNL1        0.0366
     19 C          62.1672   93.2396    1.6079 C.ar    1  UNL1        0.0031
     20 H          62.1294   97.1922   -0.9660 H       1  UNL1        0.2922
     21 C          59.8448   87.3287    9.2042 C.ar    1  UNL1        0.0516
     22 C          60.5990   86.1349    8.6980 C.ar    1  UNL1        0.0147
     23 C          61.5129   85.3801    9.6171 C.ar    1  UNL1        0.0010
     24 C          61.6728   85.8191   11.0426 C.ar    1  UNL1       -0.0014
     25 C          60.9187   87.0128   11.5489 C.ar    1  UNL1        0.0010
     26 C          60.0047   87.7676   10.6296 C.ar    1  UNL1        0.0147
     27 C          62.5868   85.0642   11.9618 C.2     1  UNL1        0.0158
     28 C          62.7130   83.5748   11.8371 C.2     1  UNL1        0.0487
     29 C          63.6269   82.8200   12.7562 C.2     1  UNL1        0.2355
     30 N          64.4148   83.5546   13.8001 N.2     1  UNL1       -0.0325
     31 C          64.2887   85.0440   13.9248 C.2     1  UNL1        0.3799
     32 N          64.9345   86.0320   14.8504 N.2     1  UNL1       -0.0106
     33 C          64.4196   87.3974   14.5034 C.2     1  UNL1        0.3351
     34 N          63.4556   87.2534   13.3632 N.2     1  UNL1       -0.2103
     35 C          63.3747   85.7989   13.0056 C.3     1  UNL1        0.2404
@<TRIPOS>BOND
     1     1     2    2
     2     2     3   am
     3     3     7    1
     4     7     8   ar
     5     8     9   ar
     6     9    10   ar
     7    10    13    1
     8    13    14   ar
     9    14    15   ar
    10    15    16   ar
    11    16    17    1
    12    16    18   ar
    13    18    19   ar
    14    10    11   ar
    15    11    12   ar
    16     2     4   am
    17     4    21    1
    18    21    22   ar
    19    22    23   ar
    20    23    24   ar
    21    24    27    1
    22    27    28    2
    23    28    29    1
    24    29    30    2
    25    30    31    1
    26    31    32    2
    27    32    33    1
    28    33    34    2
    29    34    35    1
    30    24    25   ar
    31    25    26   ar
    32    12     7   ar
    33    26    21   ar
    34    19    13   ar
    35    35    27    1
    36    35    31    1
    37     3     5    1
    38    17    20    1
    39     4     6    1
@<TRIPOS>MOLECULE
*****
 35 39 0 0 0
SMALL
GASTEIGER

@<TRIPOS>ATOM
      1 O          61.0263   89.2106    7.5423 O.2     1  UNL1       -0.2522
      2 C          59.5837   88.7999    7.5351 C.2     1  UNL1        0.3082
      3 N          58.6351   89.4098    6.5462 N.am    1  UNL1       -0.2681
      4 N          59.0897   87.7791    8.5170 N.am    1  UNL1       -0.2681
      5 H          57.6883   89.1402    6.5415 H       1  UNL1        0.1564
      6 H          58.1428   87.5095    8.5123 H       1  UNL1        0.1564
      7 C          59.1292   90.4306    5.5643 C.ar    1  UNL1        0.0516
      8 C          58.1614   91.3713    4.9096 C.ar    1  UNL1        0.0147
      9 C          58.6553   92.3920    3.9278 C.ar    1  UNL1        0.0013
     10 C          60.1170   92.4722    3.6006 C.ar    1  UNL1        0.0001
     11 C          61.0848   91.5315    4.2554 C.ar    1  UNL1        0.0013
     12 C          60.5908   90.5107    5.2372 C.ar    1  UNL1        0.0147
     13 C          60.6110   93.4929    2.6189 C.ar    1  UNL1        0.0002
     14 C          60.0886   94.8981    2.6712 C.ar    1  UNL1        0.0031
     15 C          60.5826   95.9189    1.6893 C.ar    1  UNL1        0.0366
     16 C          61.5989   95.5345    0.6553 C.ar    1  UNL1        0.1337
     17 O          62.0929   96.5553   -0.3266 O.3     1  UNL1       -0.5055
     18 C          62.1213   94.1294    0.6029 C.ar    1  UNL1        0.0366
     19 C          61.6273   93.1086    1.5847 C.ar    1  UNL1        0.0031
     20 H          61.7667   97.4331   -0.2940 H       1  UNL1        0.2922
     21 C          60.0382   87.1691    9.5059 C.ar    1  UNL1        0.0516
     22 C          60.9076   86.0165    9.0988 C.ar    1  UNL1        0.0147
     23 C          61.8562   85.4066   10.0877 C.ar    1  UNL1        0.0010
     24 C          61.9354   85.9492   11.4840 C.ar    1  UNL1       -0.0014
     25 C          61.0660   87.1018   11.8912 C.ar    1  UNL1        0.0010
     26 C          60.1175   87.7117   10.9021 C.ar    1  UNL1        0.0147
     27 C          62.8840   85.3392   12.4730 C.2     1  UNL1        0.0158
     28 C          63.6384   86.2162   13.4278 C.2     1  UNL1        0.0487
     29 C          64.5869   85.6062   14.4168 C.2     1  UNL1        0.2355
     30 N          64.7812   84.1192   14.4509 N.2     1  UNL1       -0.0325
     31 C          64.0269   83.2422   13.4960 C.2     1  UNL1        0.3799
     32 N          64.0125   81.7557   13.2961 N.2     1  UNL1       -0.0106
     33 C          63.0549   81.4470   12.1835 C.2     1  UNL1        0.3351
     34 N          62.4776   82.7427   11.6958 N.2     1  UNL1       -0.2103
     35 C          63.0782   83.8522   12.5070 C.3     1  UNL1        0.2404
@<TRIPOS>BOND
     1     1     2    2
     2     2     3   am
     3     3     7    1
     4     7     8   ar
     5     8     9   ar
     6     9    10   ar
     7    10    13    1
     8    13    14   ar
     9    14    15   ar
    10    15    16   ar
    11    16    17    1
    12    16    18   ar
    13    18    19   ar
    14    10    11   ar
    15    11    12   ar
    16     2     4   am
    17     4    21    1
    18    21    22   ar
    19    22    23   ar
    20    23    24   ar
    21    24    27    1
    22    27    28    2
    23    28    29    1
    24    29    30    2
    25    30    31    1
    26    31    32    2
    27    32    33    1
    28    33    34    2
    29    34    35    1
    30    24    25   ar
    31    25    26   ar
    32    12     7   ar
    33    26    21   ar
    34    19    13   ar
    35    35    27    1
    36    35    31    1
    37     3     5    1
    38    17    20    1
    39     4     6    1
