@<TRIPOS>MOLECULE
*****
 33 37 0 0 0
SMALL
GASTEIGER

@<TRIPOS>ATOM
      1 C          64.3809   88.8954   13.3805 C.ar    1  UNL1        0.1317
      2 C          63.4804   88.3251   12.3252 C.ar    1  UNL1        0.0346
      3 C          63.0184   86.9013   12.4229 C.ar    1  UNL1        0.0121
      4 C          63.4568   86.0480   13.5759 C.ar    1  UNL1        0.1076
      5 C          64.3573   86.6184   14.6313 C.ar    1  UNL1        0.1080
      6 N          64.8194   88.0421   14.5336 N.ar    1  UNL1       -0.2289
      7 C          66.1777   95.4080   12.2520 C.3     1  UNL1        0.1206
      8 C          66.7787   95.3070   13.6227 C.3     1  UNL1        0.0323
      9 C          66.5249   93.9217   14.1391 C.3     1  UNL1        0.0298
     10 C          65.7671   93.1666   13.0876 C.3     1  UNL1        0.0960
     11 C          66.0565   92.3672   14.3235 C.3     1  UNL1        0.0487
     12 C          65.5945   90.9436   14.4211 C.3     1  UNL1        0.0946
     13 N          64.8430   90.3192   13.2829 N.pl3   1  UNL1       -0.2931
     14 C          64.5536   91.1185   12.0471 C.3     1  UNL1        0.0946
     15 C          65.0157   92.5422   11.9495 C.3     1  UNL1        0.0487
     16 O          65.5526   94.0852   11.9213 O.3     1  UNL1       -0.3605
     17 C          66.1983   96.6191   11.3674 C.3     1  UNL1        0.0712
     18 O          65.1452   96.8559    9.0042 O.co2   1  UNL1       -0.5491
     19 C          66.2971   96.4594    9.8793 C.2     1  UNL1        0.0528
     20 O          67.5479   95.9030    9.2661 O.co2   1  UNL1       -0.5491
     21 C          62.9948   84.6243   13.6736 C.2     1  UNL1        0.3767
     22 N          61.5986   84.1695   13.9800 N.2     1  UNL1       -0.0308
     23 C          61.5887   82.6696   13.9779 C.2     1  UNL1        0.2320
     24 C          60.4936   81.6727   14.2164 C.2     1  UNL1        0.0537
     25 C          60.7885   80.2036   14.1471 C.2     1  UNL1        0.0714
     26 C          62.1785   79.7314   13.8394 C.2     1  UNL1       -0.0133
     27 C          63.2737   80.7282   13.6008 C.3     1  UNL1        0.1037
     28 C          62.9788   82.1973   13.6701 C.2     1  UNL1        0.2178
     29 N          63.8478   83.4054   13.4821 N.2     1  UNL1       -0.0347
     30 C          59.6933   79.2067   14.3856 C.3     1  UNL1        0.4184
     31 F          58.5981   78.2099   14.6241 F       1  UNL1       -0.1659
     32 F          58.7099   80.3271   14.5524 F       1  UNL1       -0.1659
     33 F          60.6767   78.0864   14.2189 F       1  UNL1       -0.1659
@<TRIPOS>UNITY_ATOM_ATTR
18 1
charge -1
@<TRIPOS>BOND
     1    18    19   ar
     2    19    20   ar
     3    19    17    1
     4    17     7    1
     5     7     8    1
     6     8     9    1
     7     9    10    1
     8    10    11    1
     9    11    12    1
    10    12    13    1
    11    13     1    1
    12     1     2   ar
    13     2     3   ar
    14     3     4   ar
    15     4    21    1
    16    21    22    2
    17    22    23    1
    18    23    24    2
    19    24    25    1
    20    25    30    1
    21    30    31    1
    22    30    32    1
    23    30    33    1
    24    25    26    2
    25    26    27    1
    26    27    28    1
    27    28    29    2
    28     4     5   ar
    29     5     6   ar
    30    13    14    1
    31    14    15    1
    32    10    16    1
    33    16     7    1
    34    15    10    1
    35     6     1   ar
    36    29    21    1
    37    28    23    1
@<TRIPOS>MOLECULE
*****
 33 37 0 0 0
SMALL
GASTEIGER

@<TRIPOS>ATOM
      1 C          59.5330   92.4371    3.1640 C.ar    1  UNL1        0.1317
      2 C          60.9042   91.9519    3.5304 C.ar    1  UNL1        0.0346
      3 C          61.0996   91.1124    4.7582 C.ar    1  UNL1        0.0121
      4 C          59.9236   90.7582    5.6194 C.ar    1  UNL1        0.1076
      5 C          58.5524   91.2435    5.2530 C.ar    1  UNL1        0.1080
      6 N          58.3571   92.0829    4.0253 N.ar    1  UNL1       -0.2289
      7 C          58.2461   95.6958   -2.7216 C.3     1  UNL1        0.1206
      8 C          59.0468   96.7987   -2.0949 C.3     1  UNL1        0.0323
      9 C          59.4800   96.3411   -0.7336 C.3     1  UNL1        0.0298
     10 C          58.9471   94.9554   -0.5189 C.3     1  UNL1        0.0960
     11 C          59.7381   95.4908    0.6376 C.3     1  UNL1        0.0487
     12 C          59.9334   94.6513    1.8652 C.3     1  UNL1        0.0946
     13 N          59.3377   93.2765    1.9363 N.pl3   1  UNL1       -0.2931
     14 C          58.5466   92.7412    0.7798 C.3     1  UNL1        0.0946
     15 C          58.3513   93.5807   -0.4478 C.3     1  UNL1        0.0487
     16 O          58.1845   94.5567   -1.7476 O.3     1  UNL1       -0.3605
     17 C          57.6175   95.7267   -4.0830 C.3     1  UNL1        0.0712
     18 O          55.4703   94.5481   -4.9492 O.co2   1  UNL1       -0.5491
     19 C          56.9333   94.5051   -4.6211 C.2     1  UNL1        0.0528
     20 O          57.7122   93.2405   -4.8312 O.co2   1  UNL1       -0.5491
     21 C          60.1189   89.9188    6.8471 C.2     1  UNL1        0.3767
     22 N          60.7717   88.5692    6.8977 N.2     1  UNL1       -0.0308
     23 C          60.7519   88.0979    8.3216 C.2     1  UNL1        0.2320
     24 C          61.2535   86.8418    8.9701 C.2     1  UNL1        0.0537
     25 C          61.0902   86.6440   10.4480 C.2     1  UNL1        0.0714
     26 C          60.4253   87.7022   11.2774 C.2     1  UNL1       -0.0133
     27 C          59.9236   88.9584   10.6289 C.3     1  UNL1        0.1037
     28 C          60.0870   89.1562    9.1510 C.2     1  UNL1        0.2178
     29 N          59.6958   90.2816    8.2397 N.2     1  UNL1       -0.0347
     30 C          61.5918   85.3878   11.0965 C.3     1  UNL1        0.4184
     31 F          62.0934   84.1317   11.7450 F       1  UNL1       -0.1659
     32 F          61.2439   85.9451   12.4450 F       1  UNL1       -0.1659
     33 F          61.9396   84.8306    9.7481 F       1  UNL1       -0.1659
@<TRIPOS>UNITY_ATOM_ATTR
18 1
charge -1
@<TRIPOS>BOND
     1    18    19   ar
     2    19    20   ar
     3    19    17    1
     4    17     7    1
     5     7     8    1
     6     8     9    1
     7     9    10    1
     8    10    11    1
     9    11    12    1
    10    12    13    1
    11    13     1    1
    12     1     2   ar
    13     2     3   ar
    14     3     4   ar
    15     4    21    1
    16    21    22    2
    17    22    23    1
    18    23    24    2
    19    24    25    1
    20    25    30    1
    21    30    31    1
    22    30    32    1
    23    30    33    1
    24    25    26    2
    25    26    27    1
    26    27    28    1
    27    28    29    2
    28     4     5   ar
    29     5     6   ar
    30    13    14    1
    31    14    15    1
    32    10    16    1
    33    16     7    1
    34    15    10    1
    35     6     1   ar
    36    29    21    1
    37    28    23    1
@<TRIPOS>MOLECULE
*****
 33 37 0 0 0
SMALL
GASTEIGER

@<TRIPOS>ATOM
      1 C          60.7678   92.9118    2.0388 C.ar    1  UNL1        0.1317
      2 C          61.9037   92.1320    2.6318 C.ar    1  UNL1        0.0346
      3 C          61.6851   91.3107    3.8678 C.ar    1  UNL1        0.0121
      4 C          60.3306   91.2693    4.5109 C.ar    1  UNL1        0.1076
      5 C          59.1947   92.0492    3.9179 C.ar    1  UNL1        0.1080
      6 N          59.4133   92.8704    2.6819 N.ar    1  UNL1       -0.2289
      7 C          62.4782   96.4243   -3.5872 C.3     1  UNL1        0.1206
      8 C          61.0415   96.8546   -3.5554 C.3     1  UNL1        0.0323
      9 C          60.3897   96.2064   -2.3700 C.3     1  UNL1        0.0298
     10 C          61.4235   95.3756   -1.6692 C.3     1  UNL1        0.0960
     11 C          60.0701   95.3376   -1.0236 C.3     1  UNL1        0.0487
     12 C          59.8516   94.5163    0.2124 C.3     1  UNL1        0.0946
     13 N          60.9864   93.7331    0.8028 N.pl3   1  UNL1       -0.2931
     14 C          62.3398   93.7711    0.1572 C.3     1  UNL1        0.0946
     15 C          62.5584   94.5924   -1.0788 C.3     1  UNL1        0.0487
     16 O          62.7142   95.5103   -2.4216 O.3     1  UNL1       -0.3605
     17 C          63.4994   96.8358   -4.6059 C.3     1  UNL1        0.0712
     18 O          65.4099   95.4061   -5.6334 O.co2   1  UNL1       -0.5491
     19 C          64.8934   96.2867   -4.5345 C.2     1  UNL1        0.0528
     20 O          65.7711   96.6184   -3.3641 O.co2   1  UNL1       -0.5491
     21 C          60.1120   90.4481    5.7469 C.2     1  UNL1        0.3767
     22 N          60.3998   90.8795    7.1544 N.2     1  UNL1       -0.0308
     23 C          60.0329   89.7493    8.0698 C.2     1  UNL1        0.2320
     24 C          60.1009   89.6030    9.5611 C.2     1  UNL1        0.0537
     25 C          59.6542   88.3268   10.2107 C.2     1  UNL1        0.0714
     26 C          59.1396   87.1970    9.3690 C.2     1  UNL1       -0.0133
     27 C          59.0716   87.3432    7.8777 C.3     1  UNL1        0.1037
     28 C          59.5182   88.6194    7.2281 C.2     1  UNL1        0.2178
     29 N          59.5671   89.0513    5.7925 N.2     1  UNL1       -0.0347
     30 C          59.7222   88.1806   11.7020 C.3     1  UNL1        0.4184
     31 F          59.7901   88.0343   13.1933 F       1  UNL1       -0.1659
     32 F          58.9336   89.4465   11.8621 F       1  UNL1       -0.1659
     33 F          60.5107   86.9147   11.5419 F       1  UNL1       -0.1659
@<TRIPOS>UNITY_ATOM_ATTR
18 1
charge -1
@<TRIPOS>BOND
     1    18    19   ar
     2    19    20   ar
     3    19    17    1
     4    17     7    1
     5     7     8    1
     6     8     9    1
     7     9    10    1
     8    10    11    1
     9    11    12    1
    10    12    13    1
    11    13     1    1
    12     1     2   ar
    13     2     3   ar
    14     3     4   ar
    15     4    21    1
    16    21    22    2
    17    22    23    1
    18    23    24    2
    19    24    25    1
    20    25    30    1
    21    30    31    1
    22    30    32    1
    23    30    33    1
    24    25    26    2
    25    26    27    1
    26    27    28    1
    27    28    29    2
    28     4     5   ar
    29     5     6   ar
    30    13    14    1
    31    14    15    1
    32    10    16    1
    33    16     7    1
    34    15    10    1
    35     6     1   ar
    36    29    21    1
    37    28    23    1
@<TRIPOS>MOLECULE
*****
 33 37 0 0 0
SMALL
GASTEIGER

@<TRIPOS>ATOM
      1 C          60.0458   90.5171    5.8767 C.ar    1  UNL1        0.1317
      2 C          58.6581   90.9474    5.5039 C.ar    1  UNL1        0.0346
      3 C          58.4393   91.8106    4.2967 C.ar    1  UNL1        0.0121
      4 C          59.6084   92.2434    3.4624 C.ar    1  UNL1        0.1076
      5 C          60.9961   91.8131    3.8353 C.ar    1  UNL1        0.1080
      6 N          61.2148   90.9500    5.0424 N.ar    1  UNL1       -0.2289
      7 C          61.2182   86.0229   10.9109 C.3     1  UNL1        0.1206
      8 C          60.8589   87.1760   11.8006 C.3     1  UNL1        0.0323
      9 C          60.5398   88.3533   10.9273 C.3     1  UNL1        0.0298
     10 C          60.7020   87.9277    9.4981 C.3     1  UNL1        0.0960
     11 C          60.2814   89.3578    9.6649 C.3     1  UNL1        0.0487
     12 C          60.0627   90.2209    8.4578 C.3     1  UNL1        0.0946
     13 N          60.2645   89.6539    7.0839 N.pl3   1  UNL1       -0.2931
     14 C          60.6851   88.2238    6.9170 C.3     1  UNL1        0.0946
     15 C          60.9038   87.3607    8.1241 C.3     1  UNL1        0.0487
     16 O          61.1213   86.4875    9.4880 O.3     1  UNL1       -0.3605
     17 C          61.6064   84.6470   11.3646 C.3     1  UNL1        0.0712
     18 O          62.4627   84.9058   13.8038 O.co2   1  UNL1       -0.5491
     19 C          62.6908   84.4721   12.3861 C.2     1  UNL1        0.0528
     20 O          64.0033   83.8636   11.9899 O.co2   1  UNL1       -0.5491
     21 C          59.3897   93.1065    2.2553 C.2     1  UNL1        0.3767
     22 N          58.7072   92.6906    0.9860 N.2     1  UNL1       -0.0308
     23 C          58.7108   93.8642    0.0518 C.2     1  UNL1        0.2320
     24 C          58.1790   94.0411   -1.3396 C.2     1  UNL1        0.0537
     25 C          58.3320   95.3592   -2.0390 C.2     1  UNL1        0.0714
     26 C          59.0168   96.5004   -1.3471 C.2     1  UNL1       -0.0133
     27 C          59.5485   96.3235    0.0443 C.3     1  UNL1        0.1037
     28 C          59.3956   95.0054    0.7437 C.2     1  UNL1        0.2178
     29 N          59.8151   94.5372    2.1056 N.2     1  UNL1       -0.0347
     30 C          57.8002   95.5361   -3.4304 C.3     1  UNL1        0.4184
     31 F          57.2685   95.7130   -4.8218 F       1  UNL1       -0.1659
     32 F          58.9770   96.4020   -3.7701 F       1  UNL1       -0.1659
     33 F          56.6234   94.6702   -3.0907 F       1  UNL1       -0.1659
@<TRIPOS>UNITY_ATOM_ATTR
18 1
charge -1
@<TRIPOS>BOND
     1    18    19   ar
     2    19    20   ar
     3    19    17    1
     4    17     7    1
     5     7     8    1
     6     8     9    1
     7     9    10    1
     8    10    11    1
     9    11    12    1
    10    12    13    1
    11    13     1    1
    12     1     2   ar
    13     2     3   ar
    14     3     4   ar
    15     4    21    1
    16    21    22    2
    17    22    23    1
    18    23    24    2
    19    24    25    1
    20    25    30    1
    21    30    31    1
    22    30    32    1
    23    30    33    1
    24    25    26    2
    25    26    27    1
    26    27    28    1
    27    28    29    2
    28     4     5   ar
    29     5     6   ar
    30    13    14    1
    31    14    15    1
    32    10    16    1
    33    16     7    1
    34    15    10    1
    35     6     1   ar
    36    29    21    1
    37    28    23    1
@<TRIPOS>MOLECULE
*****
 33 37 0 0 0
SMALL
GASTEIGER

@<TRIPOS>ATOM
      1 C          60.2076   90.6642    5.6777 C.ar    1  UNL1        0.1317
      2 C          58.8088   91.0959    5.3505 C.ar    1  UNL1        0.0346
      3 C          58.5562   91.9926    4.1749 C.ar    1  UNL1        0.0121
      4 C          59.7025   92.4576    3.3264 C.ar    1  UNL1        0.1076
      5 C          61.1013   92.0259    3.6536 C.ar    1  UNL1        0.1080
      6 N          61.3538   91.1293    4.8293 N.ar    1  UNL1       -0.2289
      7 C          61.8633   87.0792   11.2743 C.3     1  UNL1        0.1206
      8 C          60.8447   86.1091   10.7533 C.3     1  UNL1        0.0323
      9 C          60.2897   86.6623    9.4741 C.3     1  UNL1        0.0298
     10 C          60.9653   87.9741    9.2046 C.3     1  UNL1        0.0960
     11 C          59.9569   87.5824    8.1656 C.3     1  UNL1        0.0487
     12 C          59.7043   88.4791    6.9900 C.3     1  UNL1        0.0946
     13 N          60.4602   89.7675    6.8534 N.pl3   1  UNL1       -0.2931
     14 C          61.4686   90.1592    7.8924 C.3     1  UNL1        0.0946
     15 C          61.7212   89.2625    9.0680 C.3     1  UNL1        0.0487
     16 O          61.9379   88.2318   10.3172 O.3     1  UNL1       -0.3605
     17 C          62.6663   86.9239   12.5316 C.3     1  UNL1        0.0712
     18 O          63.0516   85.2301   14.4636 O.co2   1  UNL1       -0.5491
     19 C          63.0699   85.5572   12.9998 C.2     1  UNL1        0.0528
     20 O          63.4918   84.5176   12.0043 O.co2   1  UNL1       -0.5491
     21 C          59.4499   93.3543    2.1508 C.2     1  UNL1        0.3767
     22 N          58.7629   92.9640    0.8758 N.2     1  UNL1       -0.0308
     23 C          58.7284   94.1672   -0.0193 C.2     1  UNL1        0.2320
     24 C          58.1768   94.3768   -1.3983 C.2     1  UNL1        0.0537
     25 C          58.2910   95.7203   -2.0556 C.2     1  UNL1        0.0714
     26 C          58.9568   96.8542   -1.3338 C.2     1  UNL1       -0.0133
     27 C          59.5084   96.6446    0.0453 C.3     1  UNL1        0.1037
     28 C          59.3942   95.3011    0.7025 C.2     1  UNL1        0.2178
     29 N          59.8401   94.7987    2.0437 N.2     1  UNL1       -0.0347
     30 C          57.7394   95.9299   -3.4347 C.3     1  UNL1        0.4184
     31 F          57.1878   96.1395   -4.8137 F       1  UNL1       -0.1659
     32 F          56.5739   95.0459   -3.1028 F       1  UNL1       -0.1659
     33 F          58.9049   96.8139   -3.7665 F       1  UNL1       -0.1659
@<TRIPOS>UNITY_ATOM_ATTR
18 1
charge -1
@<TRIPOS>BOND
     1    18    19   ar
     2    19    20   ar
     3    19    17    1
     4    17     7    1
     5     7     8    1
     6     8     9    1
     7     9    10    1
     8    10    11    1
     9    11    12    1
    10    12    13    1
    11    13     1    1
    12     1     2   ar
    13     2     3   ar
    14     3     4   ar
    15     4    21    1
    16    21    22    2
    17    22    23    1
    18    23    24    2
    19    24    25    1
    20    25    30    1
    21    30    31    1
    22    30    32    1
    23    30    33    1
    24    25    26    2
    25    26    27    1
    26    27    28    1
    27    28    29    2
    28     4     5   ar
    29     5     6   ar
    30    13    14    1
    31    14    15    1
    32    10    16    1
    33    16     7    1
    34    15    10    1
    35     6     1   ar
    36    29    21    1
    37    28    23    1
