@<TRIPOS>MOLECULE
*****
 30 34 0 0 0
SMALL
GASTEIGER

@<TRIPOS>ATOM
      1 C          63.5025   86.3301   16.1920 C.3     1  UNL1        0.0199
      2 C          63.9435   87.4656   15.3168 C.3     1  UNL1        0.0054
      3 C          64.2577   88.7800   14.6660 C.3     1  UNL1        0.0436
      4 C          63.7438   89.8726   15.5560 C.3     1  UNL1        0.1659
      5 C          63.1119   89.2335   16.7569 C.3     1  UNL1        0.0436
      6 C          63.2353   87.7459   16.6091 C.3     1  UNL1        0.0054
      7 C          63.4022   84.8570   16.4565 C.3     1  UNL1        0.0896
      8 O          65.4089   84.3976   14.2743 O.2     1  UNL1       -0.2701
      9 C          64.0902   83.6835   14.2430 C.2     1  UNL1        0.2458
     10 N          63.0869   83.9132   15.3341 N.am    1  UNL1       -0.3009
     11 H          62.2213   83.4445   15.3136 H       1  UNL1        0.1497
     12 C          63.7748   82.7397   13.1206 C.ar    1  UNL1        0.0534
     13 C          63.0407   81.4617   13.3992 C.ar    1  UNL1        0.0054
     14 C          62.7253   80.5179   12.2768 C.ar    1  UNL1        0.0115
     15 C          63.1440   80.8522   10.8757 C.ar    1  UNL1        0.0577
     16 CL         62.8285   79.9084    9.7533 Cl      1  UNL1       -0.0822
     17 C          63.8781   82.1303   10.5971 C.ar    1  UNL1        0.0115
     18 C          64.1935   83.0740   11.7195 C.ar    1  UNL1        0.0054
     19 O          63.8441   91.3457   15.2915 O.3     1  UNL1       -0.4791
     20 C          65.1349   91.9340   14.8039 C.ar    1  UNL1        0.1414
     21 C          66.1973   92.3295   15.7861 C.ar    1  UNL1        0.0576
     22 C          67.4881   92.9177   15.2985 C.ar    1  UNL1        0.1019
     23 N          67.7165   93.1104   13.8286 N.ar    1  UNL1       -0.2436
     24 C          66.6541   92.7149   12.8463 C.ar    1  UNL1        0.0844
     25 C          66.8826   92.9076   11.3764 C.ar    1  UNL1        0.0215
     26 C          65.8202   92.5121   10.3941 C.ar    1  UNL1        0.0312
     27 C          64.5293   91.9239   10.8817 C.ar    1  UNL1        0.1403
     28 F          63.4670   91.5284    9.8994 F       1  UNL1       -0.2042
     29 C          64.3009   91.7312   12.3516 C.ar    1  UNL1        0.0342
     30 C          65.3634   92.1267   13.3339 C.ar    1  UNL1        0.0539
@<TRIPOS>BOND
     1     8     9    2
     2     9    10   am
     3    10     7    1
     4     1     7    1
     5     1     2    1
     6     2     3    1
     7     3     4    1
     8     4    19    1
     9    19    20    1
    10    20    21   ar
    11    21    22   ar
    12    22    23   ar
    13    23    24   ar
    14    24    25   ar
    15    25    26   ar
    16    26    27   ar
    17    27    28    1
    18    27    29   ar
    19    29    30   ar
    20     4     5    1
    21     6     5    1
    22     9    12    1
    23    12    13   ar
    24    13    14   ar
    25    14    15   ar
    26    15    16    1
    27    15    17   ar
    28    17    18   ar
    29     6     1    1
    30    18    12   ar
    31     6     2    1
    32    30    20   ar
    33    30    24   ar
    34    10    11    1
@<TRIPOS>MOLECULE
*****
 30 34 0 0 0
SMALL
GASTEIGER

@<TRIPOS>ATOM
      1 C          59.6167   89.1525    7.4472 C.3     1  UNL1        0.0199
      2 C          59.7305   87.8145    8.1155 C.3     1  UNL1        0.0054
      3 C          60.0111   86.6341    8.9976 C.3     1  UNL1        0.0436
      4 C          60.8330   87.1085   10.1593 C.3     1  UNL1        0.1659
      5 C          61.0602   88.5821    9.9952 C.3     1  UNL1        0.0436
      6 C          60.3789   89.0184    8.7321 C.3     1  UNL1        0.0054
      7 C          59.1109   90.0025    6.3195 C.3     1  UNL1        0.0896
      8 O          58.2467   92.2809    4.5697 O.2     1  UNL1       -0.2701
      9 C          59.6450   91.7475    4.4703 C.2     1  UNL1        0.2458
     10 N          60.0772   90.6083    5.3452 N.am    1  UNL1       -0.3009
     11 H          60.9950   90.2582    5.2799 H       1  UNL1        0.1497
     12 C          60.6114   92.3533    3.4959 C.ar    1  UNL1        0.0534
     13 C          62.0153   91.8323    3.4097 C.ar    1  UNL1        0.0054
     14 C          62.9815   92.4381    2.4353 C.ar    1  UNL1        0.0115
     15 C          62.5438   93.5649    1.5473 C.ar    1  UNL1        0.0577
     16 CL         63.5102   94.1707    0.5730 Cl      1  UNL1       -0.0822
     17 C          61.1399   94.0860    1.6336 C.ar    1  UNL1        0.0115
     18 C          60.1737   93.4802    2.6079 C.ar    1  UNL1        0.0054
     19 O          61.3387   86.2585   11.2870 O.3     1  UNL1       -0.4791
     20 C          62.3527   85.1856   11.0212 C.ar    1  UNL1        0.1414
     21 C          62.8640   84.9654    9.6283 C.ar    1  UNL1        0.0576
     22 C          63.8780   83.8925    9.3626 C.ar    1  UNL1        0.1019
     23 N          64.3807   83.0398   10.4896 N.ar    1  UNL1       -0.2436
     24 C          63.8694   83.2600   11.8824 C.ar    1  UNL1        0.0844
     25 C          64.3721   82.4074   13.0095 C.ar    1  UNL1        0.0215
     26 C          63.8608   82.6276   14.4023 C.ar    1  UNL1        0.0312
     27 C          62.8468   83.7005   14.6682 C.ar    1  UNL1        0.1403
     28 F          62.3355   83.9208   16.0610 F       1  UNL1       -0.2042
     29 C          62.3441   84.5532   13.5411 C.ar    1  UNL1        0.0342
     30 C          62.8554   84.3329   12.1482 C.ar    1  UNL1        0.0539
@<TRIPOS>BOND
     1     8     9    2
     2     9    10   am
     3    10     7    1
     4     1     7    1
     5     1     2    1
     6     2     3    1
     7     3     4    1
     8     4    19    1
     9    19    20    1
    10    20    21   ar
    11    21    22   ar
    12    22    23   ar
    13    23    24   ar
    14    24    25   ar
    15    25    26   ar
    16    26    27   ar
    17    27    28    1
    18    27    29   ar
    19    29    30   ar
    20     4     5    1
    21     6     5    1
    22     9    12    1
    23    12    13   ar
    24    13    14   ar
    25    14    15   ar
    26    15    16    1
    27    15    17   ar
    28    17    18   ar
    29     6     1    1
    30    18    12   ar
    31     6     2    1
    32    30    20   ar
    33    30    24   ar
    34    10    11    1
@<TRIPOS>MOLECULE
*****
 30 34 0 0 0
SMALL
GASTEIGER

@<TRIPOS>ATOM
      1 C          64.8186   90.1948   14.1059 C.3     1  UNL1        0.0199
      2 C          63.9632   89.2660   13.2963 C.3     1  UNL1        0.0054
      3 C          63.1848   88.1274   12.7066 C.3     1  UNL1        0.0436
      4 C          63.3743   86.9298   13.5898 C.3     1  UNL1        0.1659
      5 C          64.2698   87.3283   14.7252 C.3     1  UNL1        0.0436
      6 C          64.6338   88.7722   14.5439 C.3     1  UNL1        0.0054
      7 C          65.4191   91.5525   14.3205 C.3     1  UNL1        0.0896
      8 O          67.9808   91.9256   12.8045 O.2     1  UNL1       -0.2701
      9 C          66.7644   92.7185   12.4283 C.2     1  UNL1        0.2458
     10 N          65.4835   92.5319   13.1863 N.am    1  UNL1       -0.3009
     11 H          64.6851   93.0523   12.9394 H       1  UNL1        0.1497
     12 C          66.8288   93.6980   11.2940 C.ar    1  UNL1        0.0534
     13 C          66.2777   95.0824   11.4664 C.ar    1  UNL1        0.0054
     14 C          66.3421   96.0618   10.3321 C.ar    1  UNL1        0.0115
     15 C          66.9575   95.6568    9.0255 C.ar    1  UNL1        0.0577
     16 CL         67.0219   96.6363    7.8912 Cl      1  UNL1       -0.0822
     17 C          67.5086   94.2724    8.8531 C.ar    1  UNL1        0.0115
     18 C          67.4442   93.2930    9.9874 C.ar    1  UNL1        0.0054
     19 O          62.7738   85.5721   13.3752 O.3     1  UNL1       -0.4791
     20 C          63.3045   84.6799   12.2925 C.ar    1  UNL1        0.1414
     21 C          64.1819   83.5150   12.6435 C.ar    1  UNL1        0.0576
     22 C          64.7126   82.6228   11.5608 C.ar    1  UNL1        0.1019
     23 N          64.3660   82.8955   10.1271 N.ar    1  UNL1       -0.2436
     24 C          63.4887   84.0604    9.7761 C.ar    1  UNL1        0.0844
     25 C          63.1421   84.3331    8.3424 C.ar    1  UNL1        0.0215
     26 C          62.2648   85.4980    7.9914 C.ar    1  UNL1        0.0312
     27 C          61.7340   86.3902    9.0741 C.ar    1  UNL1        0.1403
     28 F          60.8566   87.5551    8.7231 F       1  UNL1       -0.2042
     29 C          62.0806   86.1175   10.5078 C.ar    1  UNL1        0.0342
     30 C          62.9580   84.9526   10.8588 C.ar    1  UNL1        0.0539
@<TRIPOS>BOND
     1     8     9    2
     2     9    10   am
     3    10     7    1
     4     1     7    1
     5     1     2    1
     6     2     3    1
     7     3     4    1
     8     4    19    1
     9    19    20    1
    10    20    21   ar
    11    21    22   ar
    12    22    23   ar
    13    23    24   ar
    14    24    25   ar
    15    25    26   ar
    16    26    27   ar
    17    27    28    1
    18    27    29   ar
    19    29    30   ar
    20     4     5    1
    21     6     5    1
    22     9    12    1
    23    12    13   ar
    24    13    14   ar
    25    14    15   ar
    26    15    16    1
    27    15    17   ar
    28    17    18   ar
    29     6     1    1
    30    18    12   ar
    31     6     2    1
    32    30    20   ar
    33    30    24   ar
    34    10    11    1
@<TRIPOS>MOLECULE
*****
 30 34 0 0 0
SMALL
GASTEIGER

@<TRIPOS>ATOM
      1 C          61.6952   88.6339   10.9744 C.3     1  UNL1        0.0199
      2 C          62.6198   89.4512   11.8271 C.3     1  UNL1        0.0054
      3 C          63.5716   90.4459   12.4226 C.3     1  UNL1        0.0436
      4 C          63.8952   91.4651   11.3706 C.3     1  UNL1        0.1659
      5 C          63.1433   91.1002   10.1250 C.3     1  UNL1        0.0436
      6 C          62.3551   89.8556   10.4071 C.3     1  UNL1        0.0054
      7 C          60.7804   87.4566   10.8097 C.3     1  UNL1        0.0896
      8 O          62.9057   85.6012    9.7897 O.2     1  UNL1       -0.2701
      9 C          62.1313   85.2478   11.0248 C.2     1  UNL1        0.2458
     10 N          61.0686   86.1756   11.5347 N.am    1  UNL1       -0.3009
     11 H          60.5603   85.9436   12.3453 H       1  UNL1        0.1497
     12 C          62.4195   83.9667   11.7499 C.ar    1  UNL1        0.0534
     13 C          62.3578   83.9226   13.2480 C.ar    1  UNL1        0.0054
     14 C          62.6460   82.6416   13.9730 C.ar    1  UNL1        0.0115
     15 C          62.9959   81.4046   13.2000 C.ar    1  UNL1        0.0577
     16 CL         63.2842   80.1235   13.9251 Cl      1  UNL1       -0.0822
     17 C          63.0576   81.4487   11.7020 C.ar    1  UNL1        0.0115
     18 C          62.7694   82.7298   10.9769 C.ar    1  UNL1        0.0054
     19 O          64.8100   92.6423   11.5354 O.3     1  UNL1       -0.4791
     20 C          66.2560   92.4273   11.8717 C.ar    1  UNL1        0.1414
     21 C          67.2640   92.2565   10.7742 C.ar    1  UNL1        0.0576
     22 C          68.7098   92.0415   11.1105 C.ar    1  UNL1        0.1019
     23 N          69.1477   91.9971   12.5445 N.ar    1  UNL1       -0.2436
     24 C          68.1397   92.1679   13.6421 C.ar    1  UNL1        0.0844
     25 C          68.5775   92.1235   15.0761 C.ar    1  UNL1        0.0215
     26 C          67.5695   92.2943   16.1737 C.ar    1  UNL1        0.0312
     27 C          66.1236   92.5093   15.8373 C.ar    1  UNL1        0.1403
     28 F          65.1156   92.6801   16.9349 F       1  UNL1       -0.2042
     29 C          65.6857   92.5537   14.4033 C.ar    1  UNL1        0.0342
     30 C          66.6938   92.3829   13.3057 C.ar    1  UNL1        0.0539
@<TRIPOS>BOND
     1     8     9    2
     2     9    10   am
     3    10     7    1
     4     1     7    1
     5     1     2    1
     6     2     3    1
     7     3     4    1
     8     4    19    1
     9    19    20    1
    10    20    21   ar
    11    21    22   ar
    12    22    23   ar
    13    23    24   ar
    14    24    25   ar
    15    25    26   ar
    16    26    27   ar
    17    27    28    1
    18    27    29   ar
    19    29    30   ar
    20     4     5    1
    21     6     5    1
    22     9    12    1
    23    12    13   ar
    24    13    14   ar
    25    14    15   ar
    26    15    16    1
    27    15    17   ar
    28    17    18   ar
    29     6     1    1
    30    18    12   ar
    31     6     2    1
    32    30    20   ar
    33    30    24   ar
    34    10    11    1
@<TRIPOS>MOLECULE
*****
 30 34 0 0 0
SMALL
GASTEIGER

@<TRIPOS>ATOM
      1 C          59.0907   89.6214    6.3643 C.3     1  UNL1        0.0199
      2 C          60.0691   90.4231    5.5583 C.3     1  UNL1        0.0054
      3 C          60.7948   91.3934    4.6740 C.3     1  UNL1        0.0436
      4 C          59.7907   92.3667    4.1315 C.3     1  UNL1        0.1659
      5 C          58.4444   91.9980    4.6804 C.3     1  UNL1        0.0436
      6 C          58.6164   90.7968    5.5623 C.3     1  UNL1        0.0054
      7 C          58.7996   88.4798    7.2928 C.3     1  UNL1        0.0896
      8 O          59.5997   87.9892   10.1422 O.2     1  UNL1       -0.2701
      9 C          60.2708   87.2333    9.0340 C.2     1  UNL1        0.2458
     10 N          59.8707   87.4786    7.6093 N.am    1  UNL1       -0.3009
     11 H          60.3111   86.9824    6.8819 H       1  UNL1        0.1497
     12 C          61.3419   86.2320    9.3504 C.ar    1  UNL1        0.0534
     13 C          62.2157   85.6970    8.2549 C.ar    1  UNL1        0.0054
     14 C          63.2868   84.6957    8.5714 C.ar    1  UNL1        0.0115
     15 C          63.4842   84.2295    9.9834 C.ar    1  UNL1        0.0577
     16 CL         64.5554   83.2282   10.2998 Cl      1  UNL1       -0.0822
     17 C          62.6104   84.7646   11.0789 C.ar    1  UNL1        0.0115
     18 C          61.5393   85.7658   10.7624 C.ar    1  UNL1        0.0054
     19 O          60.0818   93.5083    3.2030 O.3     1  UNL1       -0.4791
     20 C          60.2834   93.2515    1.7389 C.ar    1  UNL1        0.1414
     21 C          59.1439   92.7519    0.9012 C.ar    1  UNL1        0.0576
     22 C          59.3455   92.4952   -0.5628 C.ar    1  UNL1        0.1019
     23 N          60.6866   92.7381   -1.1892 N.ar    1  UNL1       -0.2436
     24 C          61.8262   93.2378   -0.3515 C.ar    1  UNL1        0.0844
     25 C          63.1673   93.4807   -0.9778 C.ar    1  UNL1        0.0215
     26 C          64.3069   93.9804   -0.1401 C.ar    1  UNL1        0.0312
     27 C          64.1053   94.2371    1.3240 C.ar    1  UNL1        0.1403
     28 F          65.2448   94.7368    2.1617 F       1  UNL1       -0.2042
     29 C          62.7641   93.9942    1.9503 C.ar    1  UNL1        0.0342
     30 C          61.6246   93.4945    1.1126 C.ar    1  UNL1        0.0539
@<TRIPOS>BOND
     1     8     9    2
     2     9    10   am
     3    10     7    1
     4     1     7    1
     5     1     2    1
     6     2     3    1
     7     3     4    1
     8     4    19    1
     9    19    20    1
    10    20    21   ar
    11    21    22   ar
    12    22    23   ar
    13    23    24   ar
    14    24    25   ar
    15    25    26   ar
    16    26    27   ar
    17    27    28    1
    18    27    29   ar
    19    29    30   ar
    20     4     5    1
    21     6     5    1
    22     9    12    1
    23    12    13   ar
    24    13    14   ar
    25    14    15   ar
    26    15    16    1
    27    15    17   ar
    28    17    18   ar
    29     6     1    1
    30    18    12   ar
    31     6     2    1
    32    30    20   ar
    33    30    24   ar
    34    10    11    1
@<TRIPOS>MOLECULE
*****
 30 34 0 0 0
SMALL
GASTEIGER

@<TRIPOS>ATOM
      1 C          59.0135   89.4935    6.5056 C.3     1  UNL1        0.0199
      2 C          59.9759   90.3198    5.7050 C.3     1  UNL1        0.0054
      3 C          60.6814   91.3065    4.8226 C.3     1  UNL1        0.0436
      4 C          59.6543   92.2463    4.2642 C.3     1  UNL1        0.1659
      5 C          58.3140   91.8404    4.8014 C.3     1  UNL1        0.0436
      6 C          58.5127   90.6498    5.6919 C.3     1  UNL1        0.0054
      7 C          58.7471   88.3488    7.4376 C.3     1  UNL1        0.0896
      8 O          59.6915   87.9610   10.2585 O.2     1  UNL1       -0.2701
      9 C          60.3037   87.1624    9.1462 C.2     1  UNL1        0.2458
     10 N          59.8315   87.3563    7.7357 N.am    1  UNL1       -0.3009
     11 H          60.2333   86.8321    7.0056 H       1  UNL1        0.1497
     12 C          61.3882   86.1698    9.4443 C.ar    1  UNL1        0.0534
     13 C          61.5735   85.6587   10.8422 C.ar    1  UNL1        0.0054
     14 C          62.6579   84.6662   11.1402 C.ar    1  UNL1        0.0115
     15 C          63.5571   84.1848   10.0403 C.ar    1  UNL1        0.0577
     16 CL         64.6416   83.1922   10.3384 Cl      1  UNL1       -0.0822
     17 C          63.3718   84.6960    8.6423 C.ar    1  UNL1        0.0115
     18 C          62.2873   85.6885    8.3443 C.ar    1  UNL1        0.0054
     19 O          59.9208   93.3910    3.3322 O.3     1  UNL1       -0.4791
     20 C          60.8910   93.2262    2.2000 C.ar    1  UNL1        0.1414
     21 C          62.3452   92.9955    2.4861 C.ar    1  UNL1        0.0576
     22 C          63.3154   92.8307    1.3541 C.ar    1  UNL1        0.1019
     23 N          62.8312   92.8965   -0.0641 N.ar    1  UNL1       -0.2436
     24 C          61.3770   93.1272   -0.3502 C.ar    1  UNL1        0.0844
     25 C          60.8928   93.1931   -1.7684 C.ar    1  UNL1        0.0215
     26 C          59.4386   93.4238   -2.0545 C.ar    1  UNL1        0.0312
     27 C          58.4684   93.5887   -0.9224 C.ar    1  UNL1        0.1403
     28 F          57.0142   93.8194   -1.2085 F       1  UNL1       -0.2042
     29 C          58.9525   93.5228    0.4958 C.ar    1  UNL1        0.0342
     30 C          60.4069   93.2921    0.7819 C.ar    1  UNL1        0.0539
@<TRIPOS>BOND
     1     8     9    2
     2     9    10   am
     3    10     7    1
     4     1     7    1
     5     1     2    1
     6     2     3    1
     7     3     4    1
     8     4    19    1
     9    19    20    1
    10    20    21   ar
    11    21    22   ar
    12    22    23   ar
    13    23    24   ar
    14    24    25   ar
    15    25    26   ar
    16    26    27   ar
    17    27    28    1
    18    27    29   ar
    19    29    30   ar
    20     4     5    1
    21     6     5    1
    22     9    12    1
    23    12    13   ar
    24    13    14   ar
    25    14    15   ar
    26    15    16    1
    27    15    17   ar
    28    17    18   ar
    29     6     1    1
    30    18    12   ar
    31     6     2    1
    32    30    20   ar
    33    30    24   ar
    34    10    11    1
@<TRIPOS>MOLECULE
*****
 30 34 0 0 0
SMALL
GASTEIGER

@<TRIPOS>ATOM
      1 C          62.2436   88.7284   11.4045 C.3     1  UNL1        0.0199
      2 C          63.1606   89.4600   12.3393 C.3     1  UNL1        0.0054
      3 C          64.1111   90.3898   13.0335 C.3     1  UNL1        0.0436
      4 C          64.4636   91.4909   12.0777 C.3     1  UNL1        0.1659
      5 C          63.7308   91.2415   10.7928 C.3     1  UNL1        0.0436
      6 C          62.9255   89.9863   10.9545 C.3     1  UNL1        0.0054
      7 C          61.3205   87.5797   11.1246 C.3     1  UNL1        0.0896
      8 O          62.9320   85.4273    9.7941 O.2     1  UNL1       -0.2701
      9 C          62.3352   85.1881   11.1492 C.2     1  UNL1        0.2458
     10 N          61.5294   86.2643   11.8145 N.am    1  UNL1       -0.3009
     11 H          61.1377   86.1073   12.7040 H       1  UNL1        0.1497
     12 C          62.5441   83.8726   11.8392 C.ar    1  UNL1        0.0534
     13 C          62.8165   82.6376   11.0327 C.ar    1  UNL1        0.0054
     14 C          63.0254   81.3223   11.7228 C.ar    1  UNL1        0.0115
     15 C          62.9619   81.2419   13.2193 C.ar    1  UNL1        0.0577
     16 CL         63.1708   79.9265   13.9093 Cl      1  UNL1       -0.0822
     17 C          62.6895   82.4769   14.0257 C.ar    1  UNL1        0.0115
     18 C          62.4806   83.7923   13.3357 C.ar    1  UNL1        0.0054
     19 O          65.3867   92.6396   12.3576 O.3     1  UNL1       -0.4791
     20 C          66.5452   92.9106   11.4441 C.ar    1  UNL1        0.1414
     21 C          67.7796   92.0624   11.5263 C.ar    1  UNL1        0.0576
     22 C          68.9380   92.3335   10.6127 C.ar    1  UNL1        0.1019
     23 N          68.8619   93.4527    9.6170 N.ar    1  UNL1       -0.2436
     24 C          67.6275   94.3009    9.5347 C.ar    1  UNL1        0.0844
     25 C          67.5515   95.4201    8.5390 C.ar    1  UNL1        0.0215
     26 C          66.3171   96.2683    8.4567 C.ar    1  UNL1        0.0312
     27 C          65.1586   95.9972    9.3703 C.ar    1  UNL1        0.1403
     28 F          63.9242   96.8454    9.2881 F       1  UNL1       -0.2042
     29 C          65.2346   94.8780   10.3661 C.ar    1  UNL1        0.0342
     30 C          66.4691   94.0298   10.4483 C.ar    1  UNL1        0.0539
@<TRIPOS>BOND
     1     8     9    2
     2     9    10   am
     3    10     7    1
     4     1     7    1
     5     1     2    1
     6     2     3    1
     7     3     4    1
     8     4    19    1
     9    19    20    1
    10    20    21   ar
    11    21    22   ar
    12    22    23   ar
    13    23    24   ar
    14    24    25   ar
    15    25    26   ar
    16    26    27   ar
    17    27    28    1
    18    27    29   ar
    19    29    30   ar
    20     4     5    1
    21     6     5    1
    22     9    12    1
    23    12    13   ar
    24    13    14   ar
    25    14    15   ar
    26    15    16    1
    27    15    17   ar
    28    17    18   ar
    29     6     1    1
    30    18    12   ar
    31     6     2    1
    32    30    20   ar
    33    30    24   ar
    34    10    11    1
@<TRIPOS>MOLECULE
*****
 30 34 0 0 0
SMALL
GASTEIGER

@<TRIPOS>ATOM
      1 C          63.1324   90.3287   10.9016 C.3     1  UNL1        0.0199
      2 C          62.5091   89.1959   10.1412 C.3     1  UNL1        0.0054
      3 C          61.9424   87.8997    9.6426 C.3     1  UNL1        0.0436
      4 C          62.0833   86.8814   10.7349 C.3     1  UNL1        0.1659
      5 C          62.7370   87.5483   11.9088 C.3     1  UNL1        0.0436
      6 C          63.0002   88.9787   11.5419 C.3     1  UNL1        0.0054
      7 C          63.5687   91.7622   10.9708 C.3     1  UNL1        0.0896
      8 O          63.7408   91.1489   13.9024 O.2     1  UNL1       -0.2701
      9 C          64.8846   91.8287   13.2100 C.2     1  UNL1        0.2458
     10 N          64.7986   92.1353   11.7442 N.am    1  UNL1       -0.3009
     11 H          65.5493   92.5815   11.2898 H       1  UNL1        0.1497
     12 C          66.1146   92.2018   13.9834 C.ar    1  UNL1        0.0534
     13 C          65.9914   92.7065   15.3905 C.ar    1  UNL1        0.0054
     14 C          67.2213   93.0796   16.1638 C.ar    1  UNL1        0.0115
     15 C          68.5744   92.9481   15.5300 C.ar    1  UNL1        0.0577
     16 CL         69.8044   93.3213   16.3034 Cl      1  UNL1       -0.0822
     17 C          68.6976   92.4435   14.1228 C.ar    1  UNL1        0.0115
     18 C          67.4677   92.0703   13.3495 C.ar    1  UNL1        0.0054
     19 O          61.6470   85.4479   10.6657 O.3     1  UNL1       -0.4791
     20 C          62.6317   84.3501   10.9402 C.ar    1  UNL1        0.1414
     21 C          63.3513   83.6865    9.8037 C.ar    1  UNL1        0.0576
     22 C          64.3359   82.5888   10.0783 C.ar    1  UNL1        0.1019
     23 N          64.6010   82.1547   11.4895 N.ar    1  UNL1       -0.2436
     24 C          63.8814   82.8184   12.6260 C.ar    1  UNL1        0.0844
     25 C          64.1465   82.3843   14.0372 C.ar    1  UNL1        0.0215
     26 C          63.4269   83.0480   15.1737 C.ar    1  UNL1        0.0312
     27 C          62.4422   84.1457   14.8991 C.ar    1  UNL1        0.1403
     28 F          61.7226   84.8094   16.0356 F       1  UNL1       -0.2042
     29 C          62.1771   84.5798   13.4879 C.ar    1  UNL1        0.0342
     30 C          62.8968   83.9161   12.3514 C.ar    1  UNL1        0.0539
@<TRIPOS>BOND
     1     8     9    2
     2     9    10   am
     3    10     7    1
     4     1     7    1
     5     1     2    1
     6     2     3    1
     7     3     4    1
     8     4    19    1
     9    19    20    1
    10    20    21   ar
    11    21    22   ar
    12    22    23   ar
    13    23    24   ar
    14    24    25   ar
    15    25    26   ar
    16    26    27   ar
    17    27    28    1
    18    27    29   ar
    19    29    30   ar
    20     4     5    1
    21     6     5    1
    22     9    12    1
    23    12    13   ar
    24    13    14   ar
    25    14    15   ar
    26    15    16    1
    27    15    17   ar
    28    17    18   ar
    29     6     1    1
    30    18    12   ar
    31     6     2    1
    32    30    20   ar
    33    30    24   ar
    34    10    11    1
@<TRIPOS>MOLECULE
*****
 30 34 0 0 0
SMALL
GASTEIGER

@<TRIPOS>ATOM
      1 C          64.0323   90.5793   12.9538 C.3     1  UNL1        0.0199
      2 C          63.0272   89.8509   12.1118 C.3     1  UNL1        0.0054
      3 C          62.1245   88.8697   11.4246 C.3     1  UNL1        0.0436
      4 C          62.4045   87.5083   11.9886 C.3     1  UNL1        0.1659
      5 C          63.4803   87.6482   13.0245 C.3     1  UNL1        0.0436
      6 C          63.8651   89.0960   13.1007 C.3     1  UNL1        0.0054
      7 C          64.7092   91.8563   13.3552 C.3     1  UNL1        0.0896
      8 O          67.4149   91.7484   12.0639 O.2     1  UNL1       -0.2701
      9 C          66.4360   92.8131   11.6662 C.2     1  UNL1        0.2458
     10 N          65.0832   92.8670   12.3118 N.am    1  UNL1       -0.3009
     11 H          64.4407   93.5658   12.0508 H       1  UNL1        0.1497
     12 C          66.8099   93.8238   10.6228 C.ar    1  UNL1        0.0534
     13 C          66.4334   95.2643   10.8050 C.ar    1  UNL1        0.0054
     14 C          66.8073   96.2750    9.7617 C.ar    1  UNL1        0.0115
     15 C          67.5577   95.8452    8.5360 C.ar    1  UNL1        0.0577
     16 CL         67.9316   96.8560    7.4926 Cl      1  UNL1       -0.0822
     17 C          67.9342   94.4047    8.3538 C.ar    1  UNL1        0.0115
     18 C          67.5603   93.3940    9.3971 C.ar    1  UNL1        0.0054
     19 O          61.7276   86.2313   11.5872 O.3     1  UNL1       -0.4791
     20 C          62.5479   85.0465   11.1707 C.ar    1  UNL1        0.1414
     21 C          62.9834   84.9004    9.7428 C.ar    1  UNL1        0.0576
     22 C          63.8036   83.7156    9.3264 C.ar    1  UNL1        0.1019
     23 N          64.1883   82.6769   10.3378 N.ar    1  UNL1       -0.2436
     24 C          63.7528   82.8229   11.7657 C.ar    1  UNL1        0.0844
     25 C          64.1374   81.7842   12.7772 C.ar    1  UNL1        0.0215
     26 C          63.7019   81.9302   14.2051 C.ar    1  UNL1        0.0312
     27 C          62.8817   83.1151   14.6216 C.ar    1  UNL1        0.1403
     28 F          62.4461   83.2611   16.0495 F       1  UNL1       -0.2042
     29 C          62.4970   84.1538   13.6101 C.ar    1  UNL1        0.0342
     30 C          62.9325   84.0077   12.1822 C.ar    1  UNL1        0.0539
@<TRIPOS>BOND
     1     8     9    2
     2     9    10   am
     3    10     7    1
     4     1     7    1
     5     1     2    1
     6     2     3    1
     7     3     4    1
     8     4    19    1
     9    19    20    1
    10    20    21   ar
    11    21    22   ar
    12    22    23   ar
    13    23    24   ar
    14    24    25   ar
    15    25    26   ar
    16    26    27   ar
    17    27    28    1
    18    27    29   ar
    19    29    30   ar
    20     4     5    1
    21     6     5    1
    22     9    12    1
    23    12    13   ar
    24    13    14   ar
    25    14    15   ar
    26    15    16    1
    27    15    17   ar
    28    17    18   ar
    29     6     1    1
    30    18    12   ar
    31     6     2    1
    32    30    20   ar
    33    30    24   ar
    34    10    11    1
