@<TRIPOS>MOLECULE
*****
 31 33 0 0 0
SMALL
GASTEIGER

@<TRIPOS>ATOM
      1 O          64.6306   88.8537   14.8338 O.2     1  UNL1       -0.2907
      2 C          63.8654   88.1429   13.7571 C.2     1  UNL1        0.1819
      3 C          63.8685   86.6441   13.6995 C.3     1  UNL1        0.0745
      4 C          63.1033   85.9333   12.6228 C.3     1  UNL1        0.0375
      5 C          62.3350   86.7214   11.6037 C.3     1  UNL1        0.0690
      6 C          62.3319   88.2203   11.6613 C.2     1  UNL1        0.1201
      7 O          61.5635   89.0085   10.6422 O.2     1  UNL1       -0.5092
      8 C          63.0971   88.9310   12.7380 C.2     1  UNL1        0.0936
      9 H          61.0855   88.5645    9.9696 H       1  UNL1        0.2917
     10 C          63.1064   84.4344   12.5652 C.ar    1  UNL1       -0.0138
     11 C          63.1814   83.7349   11.2404 C.ar    1  UNL1        0.0674
     12 C          63.1845   82.2360   11.1828 C.ar    1  UNL1        0.0035
     13 C          63.1126   81.4366   12.4500 C.ar    1  UNL1       -0.0001
     14 C          63.0376   82.1361   13.7748 C.ar    1  UNL1        0.0035
     15 C          63.0345   83.6350   13.8324 C.ar    1  UNL1        0.0674
     16 C          63.2533   84.5343    9.9732 C.3     1  UNL1        0.4183
     17 F          63.3252   85.3338    8.7060 F       1  UNL1       -0.1659
     18 F          64.7230   84.2505    9.8776 F       1  UNL1       -0.1659
     19 F          61.7835   84.8182   10.0688 F       1  UNL1       -0.1659
     20 C          62.9595   84.3345   15.1572 C.3     1  UNL1        0.4183
     21 F          62.8845   85.0340   16.4820 F       1  UNL1       -0.1659
     22 F          64.4389   84.1601   15.3330 F       1  UNL1       -0.1659
     23 F          61.4801   84.5089   14.9813 F       1  UNL1       -0.1659
     24 S          63.0940   90.4300   12.7956 S.3     1  UNL1       -0.0806
     25 C          64.3102   91.1993   12.3726 C.ar    1  UNL1        0.0402
     26 C          65.4312   91.4233   13.3439 C.ar    1  UNL1        0.0073
     27 C          66.6475   92.1926   12.9210 C.ar    1  UNL1        0.0006
     28 C          66.7428   92.7379   11.5268 C.ar    1  UNL1        0.0009
     29 C          65.6218   92.5139   10.5556 C.ar    1  UNL1        0.0119
     30 C          64.4055   91.7446   10.9786 C.ar    1  UNL1        0.0636
     31 CL         63.2845   91.5206   10.0073 Cl      1  UNL1       -0.0817
@<TRIPOS>BOND
     1     1     2    2
     2     2     3    1
     3     3     4    1
     4     4    10    1
     5    10    11   ar
     6    11    16    1
     7    16    17    1
     8    16    18    1
     9    16    19    1
    10    11    12   ar
    11    12    13   ar
    12    13    14   ar
    13    14    15   ar
    14    15    20    1
    15    20    21    1
    16    20    22    1
    17    20    23    1
    18     4     5    1
    19     5     6    1
    20     6     7    1
    21     6     8    2
    22     8    24    1
    23    24    25    1
    24    25    26   ar
    25    26    27   ar
    26    27    28   ar
    27    28    29   ar
    28    29    30   ar
    29    30    31    1
    30     8     2    1
    31    30    25   ar
    32    15    10   ar
    33     7     9    1
@<TRIPOS>MOLECULE
*****
 31 33 0 0 0
SMALL
GASTEIGER

@<TRIPOS>ATOM
      1 O          61.6106   89.0660   10.6181 O.2     1  UNL1       -0.2907
      2 C          62.3677   88.2693   11.6389 C.2     1  UNL1        0.1819
      3 C          62.3597   86.7706   11.5772 C.3     1  UNL1        0.0745
      4 C          63.1168   85.9739   12.5980 C.3     1  UNL1        0.0375
      5 C          63.8818   86.6758   13.6805 C.3     1  UNL1        0.0690
      6 C          63.8898   88.1745   13.7422 C.2     1  UNL1        0.1201
      7 O          64.6549   88.8765   14.8248 O.2     1  UNL1       -0.5092
      8 C          63.1327   88.9712   12.7214 C.2     1  UNL1        0.0936
      9 H          65.1278   88.3789   15.4625 H       1  UNL1        0.2917
     10 C          63.1088   84.4751   12.5363 C.ar    1  UNL1       -0.0138
     11 C          63.0418   83.6727   13.8018 C.ar    1  UNL1        0.0674
     12 C          63.0338   82.1740   13.7401 C.ar    1  UNL1        0.0035
     13 C          63.0928   81.4777   12.4128 C.ar    1  UNL1       -0.0001
     14 C          63.1598   82.2801   11.1472 C.ar    1  UNL1        0.0035
     15 C          63.1678   83.7788   11.2090 C.ar    1  UNL1        0.0674
     16 C          62.9829   84.3690   15.1291 C.3     1  UNL1        0.4183
     17 F          62.9239   85.0653   16.4564 F       1  UNL1       -0.1659
     18 F          64.4658   84.2031   15.2820 F       1  UNL1       -0.1659
     19 F          61.5000   84.5350   14.9763 F       1  UNL1       -0.1659
     20 C          63.2347   84.5812    9.9434 C.3     1  UNL1        0.4183
     21 F          63.3017   85.3837    8.6779 F       1  UNL1       -0.1659
     22 F          64.7029   84.2926    9.8381 F       1  UNL1       -0.1659
     23 F          61.7665   84.8699   10.0488 F       1  UNL1       -0.1659
     24 S          63.1407   90.4700   12.7832 S.3     1  UNL1       -0.0806
     25 C          64.3588   91.2319   12.3522 C.ar    1  UNL1        0.0402
     26 C          65.4897   91.4448   13.3144 C.ar    1  UNL1        0.0073
     27 C          66.7078   92.2067   12.8834 C.ar    1  UNL1        0.0006
     28 C          66.7950   92.7556   11.4902 C.ar    1  UNL1        0.0009
     29 C          65.6642   92.5427   10.5280 C.ar    1  UNL1        0.0119
     30 C          64.4461   91.7808   10.9590 C.ar    1  UNL1        0.0636
     31 CL         63.3152   91.5679    9.9967 Cl      1  UNL1       -0.0817
@<TRIPOS>BOND
     1     1     2    2
     2     2     3    1
     3     3     4    1
     4     4    10    1
     5    10    11   ar
     6    11    16    1
     7    16    17    1
     8    16    18    1
     9    16    19    1
    10    11    12   ar
    11    12    13   ar
    12    13    14   ar
    13    14    15   ar
    14    15    20    1
    15    20    21    1
    16    20    22    1
    17    20    23    1
    18     4     5    1
    19     5     6    1
    20     6     7    1
    21     6     8    2
    22     8    24    1
    23    24    25    1
    24    25    26   ar
    25    26    27   ar
    26    27    28   ar
    27    28    29   ar
    28    29    30   ar
    29    30    31    1
    30     8     2    1
    31    30    25   ar
    32    15    10   ar
    33     7     9    1
@<TRIPOS>MOLECULE
*****
 31 33 0 0 0
SMALL
GASTEIGER

@<TRIPOS>ATOM
      1 O          64.6523   88.8527   14.7865 O.2     1  UNL1       -0.2907
      2 C          63.8732   88.1385   13.7221 C.2     1  UNL1        0.1819
      3 C          63.8846   86.6398   13.6625 C.3     1  UNL1        0.0745
      4 C          63.1055   85.9256   12.5980 C.3     1  UNL1        0.0375
      5 C          62.3152   86.7101   11.5932 C.3     1  UNL1        0.0690
      6 C          62.3039   88.2089   11.6528 C.2     1  UNL1        0.1201
      7 O          61.5135   88.9935   10.6479 O.2     1  UNL1       -0.5092
      8 C          63.0829   88.9231   12.7172 C.2     1  UNL1        0.0936
      9 H          61.0268   88.5474    9.9829 H       1  UNL1        0.2917
     10 C          63.1169   84.4268   12.5385 C.ar    1  UNL1       -0.0138
     11 C          63.0511   83.6254   13.8048 C.ar    1  UNL1        0.0674
     12 C          63.0625   82.1266   13.7453 C.ar    1  UNL1        0.0035
     13 C          63.1396   81.4292   12.4194 C.ar    1  UNL1       -0.0001
     14 C          63.2053   82.2306   11.1532 C.ar    1  UNL1        0.0035
     15 C          63.1940   83.7294   11.2127 C.ar    1  UNL1        0.0674
     16 C          62.9740   84.3228   15.1306 C.3     1  UNL1        0.4183
     17 F          62.8970   85.0202   16.4563 F       1  UNL1       -0.1659
     18 F          64.4506   84.1345   15.3154 F       1  UNL1       -0.1659
     19 F          61.4975   84.5111   14.9457 F       1  UNL1       -0.1659
     20 C          63.2597   84.5308    9.9464 C.3     1  UNL1        0.4183
     21 F          63.3255   85.3322    8.6802 F       1  UNL1       -0.1659
     22 F          64.7263   84.2359    9.8360 F       1  UNL1       -0.1659
     23 F          61.7931   84.8257   10.0569 F       1  UNL1       -0.1659
     24 S          63.0715   90.4219   12.7768 S.3     1  UNL1       -0.0806
     25 C          64.2858   91.1982   12.3610 C.ar    1  UNL1        0.0402
     26 C          65.3981   91.4319   13.3400 C.ar    1  UNL1        0.0073
     27 C          66.6124   92.2082   12.9243 C.ar    1  UNL1        0.0006
     28 C          66.7144   92.7508   11.5295 C.ar    1  UNL1        0.0009
     29 C          65.6022   92.5171   10.5506 C.ar    1  UNL1        0.0119
     30 C          64.3879   91.7408   10.9664 C.ar    1  UNL1        0.0636
     31 CL         63.2757   91.5072    9.9874 Cl      1  UNL1       -0.0817
@<TRIPOS>BOND
     1     1     2    2
     2     2     3    1
     3     3     4    1
     4     4    10    1
     5    10    11   ar
     6    11    16    1
     7    16    17    1
     8    16    18    1
     9    16    19    1
    10    11    12   ar
    11    12    13   ar
    12    13    14   ar
    13    14    15   ar
    14    15    20    1
    15    20    21    1
    16    20    22    1
    17    20    23    1
    18     4     5    1
    19     5     6    1
    20     6     7    1
    21     6     8    2
    22     8    24    1
    23    24    25    1
    24    25    26   ar
    25    26    27   ar
    26    27    28   ar
    27    28    29   ar
    28    29    30   ar
    29    30    31    1
    30     8     2    1
    31    30    25   ar
    32    15    10   ar
    33     7     9    1
@<TRIPOS>MOLECULE
*****
 31 33 0 0 0
SMALL
GASTEIGER

@<TRIPOS>ATOM
      1 O          62.8206   86.3997   12.3797 O.2     1  UNL1       -0.2907
      2 C          62.7705   87.8792   12.1377 C.2     1  UNL1        0.1819
      3 C          63.7315   88.7879   12.8454 C.3     1  UNL1        0.0745
      4 C          63.6814   90.2674   12.6034 C.3     1  UNL1        0.0375
      5 C          62.6703   90.8383   11.6538 C.3     1  UNL1        0.0690
      6 C          61.7094   89.9296   10.9461 C.2     1  UNL1        0.1201
      7 O          60.6982   90.5004    9.9964 O.2     1  UNL1       -0.5092
      8 C          61.7594   88.4501   11.1881 C.2     1  UNL1        0.0936
      9 H          60.6669   91.4246    9.8453 H       1  UNL1        0.2917
     10 C          64.6425   91.1761   13.3111 C.ar    1  UNL1       -0.0138
     11 C          64.8005   91.0872   14.8001 C.ar    1  UNL1        0.0674
     12 C          65.7615   91.9958   15.5078 C.ar    1  UNL1        0.0035
     13 C          66.5645   92.9933   14.7265 C.ar    1  UNL1       -0.0001
     14 C          66.4064   93.0822   13.2375 C.ar    1  UNL1        0.0035
     15 C          65.4453   92.1735   12.5298 C.ar    1  UNL1        0.0674
     16 C          63.9976   90.0897   15.5814 C.3     1  UNL1        0.4183
     17 F          63.1947   89.0923   16.3626 F       1  UNL1       -0.1659
     18 F          64.9072   88.9921   15.1148 F       1  UNL1       -0.1659
     19 F          63.0880   91.1874   16.0480 F       1  UNL1       -0.1659
     20 C          65.2873   92.2623   11.0408 C.3     1  UNL1        0.4183
     21 F          65.1292   92.3512    9.5518 F       1  UNL1       -0.1659
     22 F          66.6482   91.6580   10.8603 F       1  UNL1       -0.1659
     23 F          63.9263   92.8666   11.2214 F       1  UNL1       -0.1659
     24 S          60.7984   87.5414   10.4804 S.3     1  UNL1       -0.0806
     25 C          61.2739   86.6856    9.3439 C.ar    1  UNL1        0.0402
     26 C          62.6756   86.1516    9.3426 C.ar    1  UNL1        0.0073
     27 C          63.1511   85.2957    8.2062 C.ar    1  UNL1        0.0006
     28 C          62.2248   84.9739    7.0711 C.ar    1  UNL1        0.0009
     29 C          60.8231   85.5080    7.0724 C.ar    1  UNL1        0.0119
     30 C          60.3476   86.3638    8.2088 C.ar    1  UNL1        0.0636
     31 CL         58.9459   86.8978    8.2101 Cl      1  UNL1       -0.0817
@<TRIPOS>BOND
     1     1     2    2
     2     2     3    1
     3     3     4    1
     4     4    10    1
     5    10    11   ar
     6    11    16    1
     7    16    17    1
     8    16    18    1
     9    16    19    1
    10    11    12   ar
    11    12    13   ar
    12    13    14   ar
    13    14    15   ar
    14    15    20    1
    15    20    21    1
    16    20    22    1
    17    20    23    1
    18     4     5    1
    19     5     6    1
    20     6     7    1
    21     6     8    2
    22     8    24    1
    23    24    25    1
    24    25    26   ar
    25    26    27   ar
    26    27    28   ar
    27    28    29   ar
    28    29    30   ar
    29    30    31    1
    30     8     2    1
    31    30    25   ar
    32    15    10   ar
    33     7     9    1
@<TRIPOS>MOLECULE
*****
 31 33 0 0 0
SMALL
GASTEIGER

@<TRIPOS>ATOM
      1 O          62.8269   86.3639   12.3937 O.2     1  UNL1       -0.2907
      2 C          62.7593   87.8428   12.1522 C.2     1  UNL1        0.1819
      3 C          63.7135   88.7620   12.8555 C.3     1  UNL1        0.0745
      4 C          63.6459   90.2409   12.6140 C.3     1  UNL1        0.0375
      5 C          62.6240   90.8006   11.6693 C.3     1  UNL1        0.0690
      6 C          61.6698   89.8815   10.9661 C.2     1  UNL1        0.1201
      7 O          60.6479   90.4412   10.0213 O.2     1  UNL1       -0.5092
      8 C          61.7374   88.4026   11.2075 C.2     1  UNL1        0.0936
      9 H          60.6057   91.3650    9.8704 H       1  UNL1        0.2917
     10 C          64.6002   91.1600   13.3173 C.ar    1  UNL1       -0.0138
     11 C          65.3906   92.1643   12.5319 C.ar    1  UNL1        0.0674
     12 C          66.3448   93.0834   13.2351 C.ar    1  UNL1        0.0035
     13 C          66.5087   92.9983   14.7238 C.ar    1  UNL1       -0.0001
     14 C          65.7183   91.9941   15.5091 C.ar    1  UNL1        0.0035
     15 C          64.7640   91.0749   14.8058 C.ar    1  UNL1        0.0674
     16 C          65.2267   92.2493   11.0433 C.3     1  UNL1        0.4183
     17 F          65.0627   92.3344    9.5547 F       1  UNL1       -0.1659
     18 F          63.8433   92.7994   11.2271 F       1  UNL1       -0.1659
     19 F          66.6100   91.6993   10.8595 F       1  UNL1       -0.1659
     20 C          63.9736   90.0707   15.5912 C.3     1  UNL1        0.4183
     21 F          63.1833   89.0664   16.3765 F       1  UNL1       -0.1659
     22 F          63.0507   91.1588   16.0538 F       1  UNL1       -0.1659
     23 F          64.8966   88.9825   15.1286 F       1  UNL1       -0.1659
     24 S          60.7831   87.4834   10.5042 S.3     1  UNL1       -0.0806
     25 C          61.2586   86.6455    9.3545 C.ar    1  UNL1        0.0402
     26 C          62.6550   86.0975    9.3528 C.ar    1  UNL1        0.0073
     27 C          63.1304   85.2597    8.2031 C.ar    1  UNL1        0.0006
     28 C          62.2095   84.9698    7.0550 C.ar    1  UNL1        0.0009
     29 C          60.8132   85.5178    7.0567 C.ar    1  UNL1        0.0119
     30 C          60.3378   86.3556    8.2065 C.ar    1  UNL1        0.0636
     31 CL         58.9414   86.9036    8.2081 Cl      1  UNL1       -0.0817
@<TRIPOS>BOND
     1     1     2    2
     2     2     3    1
     3     3     4    1
     4     4    10    1
     5    10    11   ar
     6    11    16    1
     7    16    17    1
     8    16    18    1
     9    16    19    1
    10    11    12   ar
    11    12    13   ar
    12    13    14   ar
    13    14    15   ar
    14    15    20    1
    15    20    21    1
    16    20    22    1
    17    20    23    1
    18     4     5    1
    19     5     6    1
    20     6     7    1
    21     6     8    2
    22     8    24    1
    23    24    25    1
    24    25    26   ar
    25    26    27   ar
    26    27    28   ar
    27    28    29   ar
    28    29    30   ar
    29    30    31    1
    30     8     2    1
    31    30    25   ar
    32    15    10   ar
    33     7     9    1
@<TRIPOS>MOLECULE
*****
 31 33 0 0 0
SMALL
GASTEIGER

@<TRIPOS>ATOM
      1 O          61.6428   89.2388   10.7517 O.2     1  UNL1       -0.2907
      2 C          62.3925   88.3675   11.7154 C.2     1  UNL1        0.1819
      3 C          62.3627   86.8762   11.5578 C.3     1  UNL1        0.0745
      4 C          63.1124   86.0049   12.5215 C.3     1  UNL1        0.0375
      5 C          63.8920   86.6250   13.6429 C.3     1  UNL1        0.0690
      6 C          63.9218   88.1164   13.8006 C.2     1  UNL1        0.1201
      7 O          64.7015   88.7366   14.9221 O.2     1  UNL1       -0.5092
      8 C          63.1721   88.9876   12.8368 C.2     1  UNL1        0.0936
      9 H          65.1698   88.1924   15.5241 H       1  UNL1        0.2917
     10 C          63.0825   84.5135   12.3638 C.ar    1  UNL1       -0.0138
     11 C          63.0870   83.9040   10.9932 C.ar    1  UNL1        0.0674
     12 C          63.0571   82.4127   10.8355 C.ar    1  UNL1        0.0035
     13 C          63.0227   81.5307   12.0483 C.ar    1  UNL1       -0.0001
     14 C          63.0182   82.1402   13.4189 C.ar    1  UNL1        0.0035
     15 C          63.0481   83.6316   13.5767 C.ar    1  UNL1        0.0674
     16 C          63.1214   84.7860    9.7803 C.3     1  UNL1        0.4183
     17 F          63.1558   85.6679    8.5675 F       1  UNL1       -0.1659
     18 F          64.5789   84.4810    9.5999 F       1  UNL1       -0.1659
     19 F          61.6639   85.0910    9.9608 F       1  UNL1       -0.1659
     20 C          63.0436   84.2411   14.9472 C.3     1  UNL1        0.4183
     21 F          63.0391   84.8505   16.3178 F       1  UNL1       -0.1659
     22 F          64.5249   84.0269   15.0473 F       1  UNL1       -0.1659
     23 F          61.5624   84.4552   14.8472 F       1  UNL1       -0.1659
     24 S          63.2020   90.4791   12.9946 S.3     1  UNL1       -0.0806
     25 C          64.3266   91.2737   12.3998 C.ar    1  UNL1        0.0402
     26 C          64.3249   91.5951   10.9346 C.ar    1  UNL1        0.0073
     27 C          65.4496   92.3898   10.3398 C.ar    1  UNL1        0.0006
     28 C          66.5758   92.8631   11.2102 C.ar    1  UNL1        0.0009
     29 C          66.5775   92.5417   12.6753 C.ar    1  UNL1        0.0119
     30 C          65.4529   91.7470   13.2701 C.ar    1  UNL1        0.0636
     31 CL         65.4545   91.4256   14.7353 Cl      1  UNL1       -0.0817
@<TRIPOS>BOND
     1     1     2    2
     2     2     3    1
     3     3     4    1
     4     4    10    1
     5    10    11   ar
     6    11    16    1
     7    16    17    1
     8    16    18    1
     9    16    19    1
    10    11    12   ar
    11    12    13   ar
    12    13    14   ar
    13    14    15   ar
    14    15    20    1
    15    20    21    1
    16    20    22    1
    17    20    23    1
    18     4     5    1
    19     5     6    1
    20     6     7    1
    21     6     8    2
    22     8    24    1
    23    24    25    1
    24    25    26   ar
    25    26    27   ar
    26    27    28   ar
    27    28    29   ar
    28    29    30   ar
    29    30    31    1
    30     8     2    1
    31    30    25   ar
    32    15    10   ar
    33     7     9    1
@<TRIPOS>MOLECULE
*****
 31 33 0 0 0
SMALL
GASTEIGER

@<TRIPOS>ATOM
      1 O          60.5893   89.4272   13.0321 O.2     1  UNL1       -0.2907
      2 C          61.7393   90.1077   12.3505 C.2     1  UNL1        0.1819
      3 C          62.9374   90.5333   13.1463 C.3     1  UNL1        0.0745
      4 C          64.0873   91.2137   12.4647 C.3     1  UNL1        0.0375
      5 C          64.0392   91.4685   10.9873 C.3     1  UNL1        0.0690
      6 C          62.8411   91.0428   10.1915 C.2     1  UNL1        0.1201
      7 O          62.7929   91.2976    8.7140 O.2     1  UNL1       -0.5092
      8 C          61.6911   90.3624   10.8731 C.2     1  UNL1        0.0936
      9 H          63.5113   91.7226    8.2882 H       1  UNL1        0.2917
     10 C          65.2855   91.6394   13.2605 C.ar    1  UNL1       -0.0138
     11 C          65.4508   91.1709   14.6759 C.ar    1  UNL1        0.0674
     12 C          66.6488   91.5965   15.4717 C.ar    1  UNL1        0.0035
     13 C          67.6817   92.4907   14.8522 C.ar    1  UNL1       -0.0001
     14 C          67.5164   92.9592   13.4369 C.ar    1  UNL1        0.0035
     15 C          66.3183   92.5336   12.6410 C.ar    1  UNL1        0.0674
     16 C          64.4179   90.2767   15.2953 C.3     1  UNL1        0.4183
     17 F          63.3850   89.3826   15.9148 F       1  UNL1       -0.1659
     18 F          63.8163   91.4579   15.9972 F       1  UNL1       -0.1659
     19 F          65.0195   89.0955   14.5934 F       1  UNL1       -0.1659
     20 C          66.1530   93.0021   11.2257 C.3     1  UNL1        0.4183
     21 F          65.9877   93.4706    9.8104 F       1  UNL1       -0.1659
     22 F          65.3370   94.1654   11.7061 F       1  UNL1       -0.1659
     23 F          66.9690   91.8387   10.7453 F       1  UNL1       -0.1659
     24 S          60.4930   89.9367   10.0772 S.3     1  UNL1       -0.0806
     25 C          60.4603   88.5798    9.4387 C.ar    1  UNL1        0.0402
     26 C          61.0720   87.4048   10.1424 C.ar    1  UNL1        0.0073
     27 C          61.0392   86.0479    9.5039 C.ar    1  UNL1        0.0006
     28 C          60.3948   85.8660    8.1616 C.ar    1  UNL1        0.0009
     29 C          59.7832   87.0410    7.4579 C.ar    1  UNL1        0.0119
     30 C          59.8159   88.3979    8.0964 C.ar    1  UNL1        0.0636
     31 CL         59.2042   89.5730    7.3927 Cl      1  UNL1       -0.0817
@<TRIPOS>BOND
     1     1     2    2
     2     2     3    1
     3     3     4    1
     4     4    10    1
     5    10    11   ar
     6    11    16    1
     7    16    17    1
     8    16    18    1
     9    16    19    1
    10    11    12   ar
    11    12    13   ar
    12    13    14   ar
    13    14    15   ar
    14    15    20    1
    15    20    21    1
    16    20    22    1
    17    20    23    1
    18     4     5    1
    19     5     6    1
    20     6     7    1
    21     6     8    2
    22     8    24    1
    23    24    25    1
    24    25    26   ar
    25    26    27   ar
    26    27    28   ar
    27    28    29   ar
    28    29    30   ar
    29    30    31    1
    30     8     2    1
    31    30    25   ar
    32    15    10   ar
    33     7     9    1
@<TRIPOS>MOLECULE
*****
 31 33 0 0 0
SMALL
GASTEIGER

@<TRIPOS>ATOM
      1 O          63.6536   85.5552   14.0387 O.2     1  UNL1       -0.2907
      2 C          63.2929   86.6603   13.0907 C.2     1  UNL1        0.1819
      3 C          62.4304   86.3733   11.8976 C.3     1  UNL1        0.0745
      4 C          62.0697   87.4784   10.9496 C.3     1  UNL1        0.0375
      5 C          62.5715   88.8705   11.1948 C.3     1  UNL1        0.0690
      6 C          63.4340   89.1575   12.3879 C.2     1  UNL1        0.1201
      7 O          63.9359   90.5497   12.6332 O.2     1  UNL1       -0.5092
      8 C          63.7947   88.0524   13.3359 C.2     1  UNL1        0.0936
      9 H          63.7105   91.2400   12.0410 H       1  UNL1        0.2917
     10 C          61.2072   87.1913    9.7564 C.ar    1  UNL1       -0.0138
     11 C          60.0090   88.0482    9.4735 C.ar    1  UNL1        0.0674
     12 C          59.1465   87.7612    8.2804 C.ar    1  UNL1        0.0035
     13 C          59.4821   86.6172    7.3700 C.ar    1  UNL1       -0.0001
     14 C          60.6803   85.7602    7.6529 C.ar    1  UNL1        0.0035
     15 C          61.5428   86.0473    8.8461 C.ar    1  UNL1        0.0674
     16 C          59.6734   89.1923   10.3839 C.3     1  UNL1        0.4183
     17 F          59.3377   90.3362   11.2942 F       1  UNL1       -0.1659
     18 F          59.2271   88.2227   11.4377 F       1  UNL1       -0.1659
     19 F          60.1196   90.1618    9.3300 F       1  UNL1       -0.1659
     20 C          62.7410   85.1904    9.1290 C.3     1  UNL1        0.4183
     21 F          63.9392   84.3334    9.4119 F       1  UNL1       -0.1659
     22 F          63.5562   86.0165    8.1787 F       1  UNL1       -0.1659
     23 F          61.9258   84.3642   10.0793 F       1  UNL1       -0.1659
     24 S          64.6573   88.3395   14.5291 S.3     1  UNL1       -0.0806
     25 C          64.7302   89.7310   15.0844 C.ar    1  UNL1        0.0402
     26 C          65.8200   90.6603   14.6386 C.ar    1  UNL1        0.0073
     27 C          65.8929   92.0518   15.1939 C.ar    1  UNL1        0.0006
     28 C          64.8760   92.5140   16.1951 C.ar    1  UNL1        0.0009
     29 C          63.7863   91.5847   16.6409 C.ar    1  UNL1        0.0119
     30 C          63.7133   90.1932   16.0856 C.ar    1  UNL1        0.0636
     31 CL         62.6235   89.2639   16.5314 Cl      1  UNL1       -0.0817
@<TRIPOS>BOND
     1     1     2    2
     2     2     3    1
     3     3     4    1
     4     4    10    1
     5    10    11   ar
     6    11    16    1
     7    16    17    1
     8    16    18    1
     9    16    19    1
    10    11    12   ar
    11    12    13   ar
    12    13    14   ar
    13    14    15   ar
    14    15    20    1
    15    20    21    1
    16    20    22    1
    17    20    23    1
    18     4     5    1
    19     5     6    1
    20     6     7    1
    21     6     8    2
    22     8    24    1
    23    24    25    1
    24    25    26   ar
    25    26    27   ar
    26    27    28   ar
    27    28    29   ar
    28    29    30   ar
    29    30    31    1
    30     8     2    1
    31    30    25   ar
    32    15    10   ar
    33     7     9    1
@<TRIPOS>MOLECULE
*****
 31 33 0 0 0
SMALL
GASTEIGER

@<TRIPOS>ATOM
      1 O          63.6626   85.5539   14.0329 O.2     1  UNL1       -0.2907
      2 C          63.2973   86.6597   13.0876 C.2     1  UNL1        0.1819
      3 C          62.4331   86.3727   11.8957 C.3     1  UNL1        0.0745
      4 C          62.0679   87.4786   10.9504 C.3     1  UNL1        0.0375
      5 C          62.5669   88.8715   11.1970 C.3     1  UNL1        0.0690
      6 C          63.4311   89.1585   12.3889 C.2     1  UNL1        0.1201
      7 O          63.9301   90.5514   12.6356 O.2     1  UNL1       -0.5092
      8 C          63.7963   88.0526   13.3342 C.2     1  UNL1        0.0936
      9 H          63.7020   91.2423   12.0451 H       1  UNL1        0.2917
     10 C          61.2037   87.1915    9.7584 C.ar    1  UNL1       -0.0138
     11 C          61.5384   86.0479    8.8473 C.ar    1  UNL1        0.0674
     12 C          60.6742   85.7608    7.6554 C.ar    1  UNL1        0.0035
     13 C          59.4752   86.6174    7.3745 C.ar    1  UNL1       -0.0001
     14 C          59.1405   87.7610    8.2856 C.ar    1  UNL1        0.0035
     15 C          60.0047   88.0481    9.4776 C.ar    1  UNL1        0.0674
     16 C          62.7374   85.1914    9.1282 C.3     1  UNL1        0.4183
     17 F          63.9364   84.3349    9.4090 F       1  UNL1       -0.1659
     18 F          63.5518   86.0205    8.1799 F       1  UNL1       -0.1659
     19 F          61.9230   84.3622   10.0764 F       1  UNL1       -0.1659
     20 C          59.6700   89.1917   10.3887 C.3     1  UNL1        0.4183
     21 F          59.3352   90.3353   11.2998 F       1  UNL1       -0.1659
     22 F          59.2264   88.2216   11.4433 F       1  UNL1       -0.1659
     23 F          60.1136   90.1617    9.3340 F       1  UNL1       -0.1659
     24 S          64.6606   88.3397   14.5262 S.3     1  UNL1       -0.0806
     25 C          64.7344   89.7312   15.0814 C.ar    1  UNL1        0.0402
     26 C          65.8234   90.6606   14.6337 C.ar    1  UNL1        0.0073
     27 C          65.8972   92.0521   15.1888 C.ar    1  UNL1        0.0006
     28 C          64.8820   92.5143   16.1917 C.ar    1  UNL1        0.0009
     29 C          63.7930   91.5849   16.6394 C.ar    1  UNL1        0.0119
     30 C          63.7192   90.1934   16.0842 C.ar    1  UNL1        0.0636
     31 CL         62.6301   89.2641   16.5319 Cl      1  UNL1       -0.0817
@<TRIPOS>BOND
     1     1     2    2
     2     2     3    1
     3     3     4    1
     4     4    10    1
     5    10    11   ar
     6    11    16    1
     7    16    17    1
     8    16    18    1
     9    16    19    1
    10    11    12   ar
    11    12    13   ar
    12    13    14   ar
    13    14    15   ar
    14    15    20    1
    15    20    21    1
    16    20    22    1
    17    20    23    1
    18     4     5    1
    19     5     6    1
    20     6     7    1
    21     6     8    2
    22     8    24    1
    23    24    25    1
    24    25    26   ar
    25    26    27   ar
    26    27    28   ar
    27    28    29   ar
    28    29    30   ar
    29    30    31    1
    30     8     2    1
    31    30    25   ar
    32    15    10   ar
    33     7     9    1
