@<TRIPOS>MOLECULE
*****
 22 24 0 0 0
SMALL
GASTEIGER

@<TRIPOS>ATOM
      1 O          64.8353   84.3188   14.4664 O.3     1  UNL1       -0.3625
      2 C          63.9702   85.0902   13.5142 C.3     1  UNL1        0.2216
      3 H          64.2748   83.8103   15.0730 H       1  UNL1        0.2127
      4 C          63.6723   83.8272   12.7618 C.ar    1  UNL1        0.0530
      5 C          64.3698   83.5450   11.4642 C.ar    1  UNL1        0.0045
      6 C          64.0719   82.2820   10.7118 C.ar    1  UNL1        0.0296
      7 C          63.0764   81.3013   11.2569 C.ar    1  UNL1        0.1424
      8 F          62.7785   80.0383   10.5045 F       1  UNL1       -0.2041
      9 C          62.3789   81.5835   12.5546 C.ar    1  UNL1        0.0591
     10 C          62.6768   82.8465   13.3070 C.ar    1  UNL1        0.1425
     11 F          61.9793   83.1287   14.6046 F       1  UNL1       -0.2043
     12 N          63.1051   85.8616   12.5621 N.ar    1  UNL1       -0.2031
     13 C          62.0259   85.2903   11.6908 C.ar    1  UNL1        0.1995
     14 N          61.4211   86.4153   10.9043 N.ar    1  UNL1       -0.2007
     15 C          62.1265   87.6818   11.2895 C.ar    1  UNL1        0.2211
     16 N          63.1673   87.3396   12.3141 N.ar    1  UNL1       -0.1429
     17 C          64.2682   86.3531   14.2667 C.3     1  UNL1        0.1825
     18 N          63.6285   86.6000   15.6008 N.ar    1  UNL1       -0.2445
     19 C          63.5171   87.9259   16.2934 C.ar    1  UNL1        0.0969
     20 C          62.8076   87.7097   17.5972 C.ar    1  UNL1        0.0427
     21 C          62.4804   86.2502   17.7103 C.ar    1  UNL1        0.1217
     22 N          62.9877   85.5644   16.4765 N.ar    1  UNL1       -0.1675
@<TRIPOS>BOND
     1     2     1    1
     2     2    17    1
     3    17    18    1
     4    18    19   ar
     5    19    20   ar
     6    20    21   ar
     7    21    22   ar
     8     2     4    1
     9     4     5   ar
    10     5     6   ar
    11     6     7   ar
    12     7     8    1
    13     7     9   ar
    14     9    10   ar
    15    10    11    1
    16     2    12    1
    17    12    13   ar
    18    13    14   ar
    19    14    15   ar
    20    15    16   ar
    21    22    18   ar
    22    10     4   ar
    23    16    12   ar
    24     1     3    1
@<TRIPOS>MOLECULE
*****
 22 24 0 0 0
SMALL
GASTEIGER

@<TRIPOS>ATOM
      1 O          64.3732   92.1456   10.6718 O.3     1  UNL1       -0.3625
      2 C          65.3351   92.4397   11.7846 C.3     1  UNL1        0.2216
      3 H          63.7348   92.8720   10.5959 H       1  UNL1        0.2127
      4 C          66.0309   93.4463   10.9170 C.ar    1  UNL1        0.0530
      5 C          65.6246   94.8893   10.9688 C.ar    1  UNL1        0.0045
      6 C          66.3203   95.8960   10.1013 C.ar    1  UNL1        0.0296
      7 C          67.4223   95.4597    9.1821 C.ar    1  UNL1        0.1424
      8 F          68.1181   96.4663    8.3145 F       1  UNL1       -0.2041
      9 C          67.8286   94.0167    9.1303 C.ar    1  UNL1        0.0591
     10 C          67.1329   93.0100    9.9978 C.ar    1  UNL1        0.1425
     11 F          67.5392   91.5670    9.9460 F       1  UNL1       -0.2043
     12 N          66.2970   92.7337   12.8973 N.ar    1  UNL1       -0.2031
     13 C          67.5851   92.0123   13.1630 C.ar    1  UNL1        0.1995
     14 N          68.2239   92.6335   14.3697 N.ar    1  UNL1       -0.2007
     15 C          67.3307   93.7388   14.8497 C.ar    1  UNL1        0.2211
     16 N          66.1398   93.8008   13.9398 N.ar    1  UNL1       -0.1429
     17 C          64.6393   91.4330   12.6520 C.3     1  UNL1        0.1825
     18 N          63.5317   90.5940   12.0869 N.ar    1  UNL1       -0.2445
     19 C          63.3928   89.1070   12.2265 C.ar    1  UNL1        0.0969
     20 C          62.1438   88.6887   11.5089 C.ar    1  UNL1        0.0427
     21 C          61.5107   89.9172   10.9258 C.ar    1  UNL1        0.1217
     22 N          62.3685   91.0947   11.2831 N.ar    1  UNL1       -0.1675
@<TRIPOS>BOND
     1     2     1    1
     2     2    17    1
     3    17    18    1
     4    18    19   ar
     5    19    20   ar
     6    20    21   ar
     7    21    22   ar
     8     2     4    1
     9     4     5   ar
    10     5     6   ar
    11     6     7   ar
    12     7     8    1
    13     7     9   ar
    14     9    10   ar
    15    10    11    1
    16     2    12    1
    17    12    13   ar
    18    13    14   ar
    19    14    15   ar
    20    15    16   ar
    21    22    18   ar
    22    10     4   ar
    23    16    12   ar
    24     1     3    1
@<TRIPOS>MOLECULE
*****
 22 24 0 0 0
SMALL
GASTEIGER

@<TRIPOS>ATOM
      1 O          61.2352   88.9787    9.4378 O.3     1  UNL1       -0.3625
      2 C          61.7019   87.8942   10.3629 C.3     1  UNL1        0.2216
      3 H          61.9657   89.2458    8.8581 H       1  UNL1        0.2127
      4 C          61.6494   86.9083    9.2336 C.ar    1  UNL1        0.0530
      5 C          62.8954   86.1909    8.8058 C.ar    1  UNL1        0.0045
      6 C          62.8429   85.2051    7.6766 C.ar    1  UNL1        0.0296
      7 C          61.5446   84.9366    6.9751 C.ar    1  UNL1        0.1424
      8 F          61.4921   83.9507    5.8458 F       1  UNL1       -0.2041
      9 C          60.2986   85.6540    7.4028 C.ar    1  UNL1        0.0591
     10 C          60.3511   86.6399    8.5321 C.ar    1  UNL1        0.1425
     11 F          59.1051   87.3573    8.9599 F       1  UNL1       -0.2043
     12 N          62.1686   86.8097   11.2881 N.ar    1  UNL1       -0.2031
     13 C          61.7274   85.3763   11.2599 C.ar    1  UNL1        0.1995
     14 N          62.4445   84.6488   12.3583 N.ar    1  UNL1       -0.2007
     15 C          63.3290   85.6326   13.0653 C.ar    1  UNL1        0.2211
     16 N          63.1585   86.9681   12.4039 N.ar    1  UNL1       -0.1429
     17 C          61.7544   88.8801   11.4922 C.3     1  UNL1        0.1825
     18 N          62.7559   89.9965   11.4672 N.ar    1  UNL1       -0.2445
     19 C          63.5468   90.4979   12.6390 C.ar    1  UNL1        0.0969
     20 C          64.4221   91.6188   12.1621 C.ar    1  UNL1        0.0427
     21 C          64.1722   91.8102   10.6955 C.ar    1  UNL1        0.1217
     22 N          63.1424   90.8076   10.2661 N.ar    1  UNL1       -0.1675
@<TRIPOS>BOND
     1     2     1    1
     2     2    17    1
     3    17    18    1
     4    18    19   ar
     5    19    20   ar
     6    20    21   ar
     7    21    22   ar
     8     2     4    1
     9     4     5   ar
    10     5     6   ar
    11     6     7   ar
    12     7     8    1
    13     7     9   ar
    14     9    10   ar
    15    10    11    1
    16     2    12    1
    17    12    13   ar
    18    13    14   ar
    19    14    15   ar
    20    15    16   ar
    21    22    18   ar
    22    10     4   ar
    23    16    12   ar
    24     1     3    1
@<TRIPOS>MOLECULE
*****
 22 24 0 0 0
SMALL
GASTEIGER

@<TRIPOS>ATOM
      1 O          64.3158   85.7025   13.7506 O.3     1  UNL1       -0.3625
      2 C          63.7122   84.3330   13.8500 C.3     1  UNL1        0.2216
      3 H          65.2296   85.6309   13.4331 H       1  UNL1        0.2127
      4 C          63.5758   84.2848   12.3569 C.ar    1  UNL1        0.0530
      5 C          64.4667   83.3867   11.5510 C.ar    1  UNL1        0.0045
      6 C          64.3304   83.3385   10.0580 C.ar    1  UNL1        0.0296
      7 C          63.3030   84.1884    9.3710 C.ar    1  UNL1        0.1424
      8 F          63.1666   84.1403    7.8779 F       1  UNL1       -0.2041
      9 C          62.4120   85.0866   10.1769 C.ar    1  UNL1        0.0591
     10 C          62.5484   85.1348   11.6699 C.ar    1  UNL1        0.1425
     11 F          61.6575   86.0329   12.4758 F       1  UNL1       -0.2043
     12 N          63.1086   82.9634   13.9494 N.ar    1  UNL1       -0.2031
     13 C          63.8517   81.6636   13.8582 C.ar    1  UNL1        0.1995
     14 N          62.8583   80.5500   14.0098 N.ar    1  UNL1       -0.2007
     15 C          61.5012   81.1615   14.1948 C.ar    1  UNL1        0.2211
     16 N          61.6558   82.6531   14.1574 N.ar    1  UNL1       -0.1429
     17 C          63.8486   84.3812   15.3430 C.3     1  UNL1        0.1825
     18 N          63.4393   85.6133   16.0941 N.ar    1  UNL1       -0.2445
     19 C          62.5897   85.6512   17.3297 C.ar    1  UNL1        0.0969
     20 C          62.4330   87.0852   17.7408 C.ar    1  UNL1        0.0427
     21 C          63.1858   87.9337   16.7593 C.ar    1  UNL1        0.1217
     22 N          63.8078   87.0240   15.7416 N.ar    1  UNL1       -0.1675
@<TRIPOS>BOND
     1     2     1    1
     2     2    17    1
     3    17    18    1
     4    18    19   ar
     5    19    20   ar
     6    20    21   ar
     7    21    22   ar
     8     2     4    1
     9     4     5   ar
    10     5     6   ar
    11     6     7   ar
    12     7     8    1
    13     7     9   ar
    14     9    10   ar
    15    10    11    1
    16     2    12    1
    17    12    13   ar
    18    13    14   ar
    19    14    15   ar
    20    15    16   ar
    21    22    18   ar
    22    10     4   ar
    23    16    12   ar
    24     1     3    1
@<TRIPOS>MOLECULE
*****
 22 24 0 0 0
SMALL
GASTEIGER

@<TRIPOS>ATOM
      1 O          64.8228   84.5604   15.0716 O.3     1  UNL1       -0.3625
      2 C          63.9791   85.0825   13.9467 C.3     1  UNL1        0.2216
      3 H          64.2558   84.3487   15.8297 H       1  UNL1        0.2127
      4 C          63.4966   83.6909   13.6626 C.ar    1  UNL1        0.0530
      5 C          62.4365   83.0738   14.5260 C.ar    1  UNL1        0.0045
      6 C          61.9540   81.6823   14.2421 C.ar    1  UNL1        0.0296
      7 C          62.5316   80.9078   13.0947 C.ar    1  UNL1        0.1424
      8 F          62.0491   79.5161   12.8107 F       1  UNL1       -0.2041
      9 C          63.5917   81.5248   12.2313 C.ar    1  UNL1        0.0591
     10 C          64.0742   82.9164   12.5153 C.ar    1  UNL1        0.1425
     11 F          65.1343   83.5334   11.6519 F       1  UNL1       -0.2043
     12 N          63.1355   85.6047   12.8217 N.ar    1  UNL1       -0.2031
     13 C          63.0894   87.0244   12.3396 C.ar    1  UNL1        0.1995
     14 N          62.1152   87.0960   11.2012 N.ar    1  UNL1       -0.2007
     15 C          61.5592   85.7206   10.9798 C.ar    1  UNL1        0.2211
     16 N          62.1897   84.7989   11.9813 N.ar    1  UNL1       -0.1429
     17 C          64.4616   86.4741   14.2307 C.3     1  UNL1        0.1825
     18 N          63.8801   87.2507   15.3747 N.ar    1  UNL1       -0.2445
     19 C          63.8016   88.7451   15.4764 C.ar    1  UNL1        0.0969
     20 C          63.1480   89.0872   16.7825 C.ar    1  UNL1        0.0427
     21 C          62.8226   87.8041   17.4880 C.ar    1  UNL1        0.1217
     22 N          63.2751   86.6691   16.6180 N.ar    1  UNL1       -0.1675
@<TRIPOS>BOND
     1     2     1    1
     2     2    17    1
     3    17    18    1
     4    18    19   ar
     5    19    20   ar
     6    20    21   ar
     7    21    22   ar
     8     2     4    1
     9     4     5   ar
    10     5     6   ar
    11     6     7   ar
    12     7     8    1
    13     7     9   ar
    14     9    10   ar
    15    10    11    1
    16     2    12    1
    17    12    13   ar
    18    13    14   ar
    19    14    15   ar
    20    15    16   ar
    21    22    18   ar
    22    10     4   ar
    23    16    12   ar
    24     1     3    1
@<TRIPOS>MOLECULE
*****
 22 24 0 0 0
SMALL
GASTEIGER

@<TRIPOS>ATOM
      1 O          63.1158   89.6043    9.8908 O.3     1  UNL1       -0.3625
      2 C          61.7982   89.6288   10.6072 C.3     1  UNL1        0.2216
      3 H          63.6254   88.8304   10.1776 H       1  UNL1        0.2127
      4 C          61.3001   88.5194    9.7289 C.ar    1  UNL1        0.0530
      5 C          60.3160   88.8127    8.6356 C.ar    1  UNL1        0.0045
      6 C          59.8179   87.7034    7.7573 C.ar    1  UNL1        0.0296
      7 C          60.3041   86.3008    7.9723 C.ar    1  UNL1        0.1424
      8 F          59.8060   85.1915    7.0940 F       1  UNL1       -0.2041
      9 C          61.2883   86.0075    9.0656 C.ar    1  UNL1        0.0591
     10 C          61.7863   87.1168    9.9439 C.ar    1  UNL1        0.1425
     11 F          62.7705   86.8235   11.0372 F       1  UNL1       -0.2043
     12 N          60.4805   89.6533   11.3235 N.ar    1  UNL1       -0.2031
     13 C          59.5166   90.8022   11.3575 C.ar    1  UNL1        0.1995
     14 N          58.3358   90.3921   12.1866 N.ar    1  UNL1       -0.2007
     15 C          58.5698   88.9899   12.6650 C.ar    1  UNL1        0.2211
     16 N          59.8953   88.5332   12.1316 N.ar    1  UNL1       -0.1429
     17 C          62.2962   90.7381   11.4854 C.3     1  UNL1        0.1825
     18 N          63.2540   90.4394   12.6005 N.ar    1  UNL1       -0.2445
     19 C          64.3658   91.3302   13.0702 C.ar    1  UNL1        0.0969
     20 C          65.0671   90.6388   14.2016 C.ar    1  UNL1        0.0427
     21 C          64.3889   89.3208   14.4312 C.ar    1  UNL1        0.1217
     22 N          63.2683   89.1976   13.4416 N.ar    1  UNL1       -0.1675
@<TRIPOS>BOND
     1     2     1    1
     2     2    17    1
     3    17    18    1
     4    18    19   ar
     5    19    20   ar
     6    20    21   ar
     7    21    22   ar
     8     2     4    1
     9     4     5   ar
    10     5     6   ar
    11     6     7   ar
    12     7     8    1
    13     7     9   ar
    14     9    10   ar
    15    10    11    1
    16     2    12    1
    17    12    13   ar
    18    13    14   ar
    19    14    15   ar
    20    15    16   ar
    21    22    18   ar
    22    10     4   ar
    23    16    12   ar
    24     1     3    1
@<TRIPOS>MOLECULE
*****
 22 24 0 0 0
SMALL
GASTEIGER

@<TRIPOS>ATOM
      1 O          61.8490   84.8869   11.0367 O.3     1  UNL1       -0.3625
      2 C          62.7972   85.0700   12.1844 C.3     1  UNL1        0.2216
      3 H          62.3028   84.4282   10.3124 H       1  UNL1        0.2127
      4 C          62.6587   83.6170   12.5306 C.ar    1  UNL1        0.0530
      5 C          62.0499   83.2129   13.8406 C.ar    1  UNL1        0.0045
      6 C          61.9114   81.7600   14.1868 C.ar    1  UNL1        0.0296
      7 C          62.3818   80.7113   13.2230 C.ar    1  UNL1        0.1424
      8 F          62.2433   79.2583   13.5692 F       1  UNL1       -0.2041
      9 C          62.9906   81.1154   11.9130 C.ar    1  UNL1        0.0591
     10 C          63.1291   82.5683   11.5668 C.ar    1  UNL1        0.1425
     11 F          63.7379   82.9725   10.2569 F       1  UNL1       -0.2043
     12 N          63.7453   85.2532   13.3322 N.ar    1  UNL1       -0.2031
     13 C          64.9025   84.3608   13.6710 C.ar    1  UNL1        0.1995
     14 N          65.5752   84.9169   14.8909 N.ar    1  UNL1       -0.2007
     15 C          64.8337   86.1530   15.3061 C.ar    1  UNL1        0.2211
     16 N          63.7028   86.3608   14.3428 N.ar    1  UNL1       -0.1429
     17 C          62.9356   86.5229   11.8383 C.3     1  UNL1        0.1825
     18 N          61.8755   87.2044   11.0248 N.ar    1  UNL1       -0.2445
     19 C          62.0354   87.7259    9.6275 C.ar    1  UNL1        0.0969
     20 C          60.7281   88.3278    9.2048 C.ar    1  UNL1        0.0427
     21 C          59.7601   88.1783   10.3409 C.ar    1  UNL1        0.1217
     22 N          60.4693   87.4840   11.4657 N.ar    1  UNL1       -0.1675
@<TRIPOS>BOND
     1     2     1    1
     2     2    17    1
     3    17    18    1
     4    18    19   ar
     5    19    20   ar
     6    20    21   ar
     7    21    22   ar
     8     2     4    1
     9     4     5   ar
    10     5     6   ar
    11     6     7   ar
    12     7     8    1
    13     7     9   ar
    14     9    10   ar
    15    10    11    1
    16     2    12    1
    17    12    13   ar
    18    13    14   ar
    19    14    15   ar
    20    15    16   ar
    21    22    18   ar
    22    10     4   ar
    23    16    12   ar
    24     1     3    1
@<TRIPOS>MOLECULE
*****
 22 24 0 0 0
SMALL
GASTEIGER

@<TRIPOS>ATOM
      1 O          64.3439   84.0819   12.7846 O.3     1  UNL1       -0.3625
      2 C          63.7336   84.6326   14.0393 C.3     1  UNL1        0.2216
      3 H          63.6427   83.8808   12.1453 H       1  UNL1        0.2127
      4 C          63.4876   85.9398   13.3459 C.ar    1  UNL1        0.0530
      5 C          64.0695   87.2052   13.9027 C.ar    1  UNL1        0.0045
      6 C          63.8235   88.5124   13.2093 C.ar    1  UNL1        0.0296
      7 C          62.9956   88.5541   11.9592 C.ar    1  UNL1        0.1424
      8 F          62.7496   89.8613   11.2658 F       1  UNL1       -0.2041
      9 C          62.4137   87.2886   11.4024 C.ar    1  UNL1        0.0591
     10 C          62.6597   85.9815   12.0958 C.ar    1  UNL1        0.1425
     11 F          62.0779   84.7160   11.5390 F       1  UNL1       -0.2043
     12 N          63.1233   85.1832   15.2940 N.ar    1  UNL1       -0.2031
     13 C          61.6603   85.2112   15.6242 C.ar    1  UNL1        0.1995
     14 N          61.5016   85.8478   16.9731 N.ar    1  UNL1       -0.2007
     15 C          62.8665   86.2133   17.4765 C.ar    1  UNL1        0.2211
     16 N          63.8688   85.8026   16.4388 N.ar    1  UNL1       -0.1429
     17 C          63.9797   83.3254   14.7326 C.3     1  UNL1        0.1825
     18 N          63.2061   82.1052   14.3293 N.ar    1  UNL1       -0.2445
     19 C          61.7118   81.9844   14.2818 C.ar    1  UNL1        0.0969
     20 C          61.3732   80.5961   13.8257 C.ar    1  UNL1        0.0427
     21 C          62.6583   79.8589   13.5913 C.ar    1  UNL1        0.1217
     22 N          63.7911   80.7915   13.9026 N.ar    1  UNL1       -0.1675
@<TRIPOS>BOND
     1     2     1    1
     2     2    17    1
     3    17    18    1
     4    18    19   ar
     5    19    20   ar
     6    20    21   ar
     7    21    22   ar
     8     2     4    1
     9     4     5   ar
    10     5     6   ar
    11     6     7   ar
    12     7     8    1
    13     7     9   ar
    14     9    10   ar
    15    10    11    1
    16     2    12    1
    17    12    13   ar
    18    13    14   ar
    19    14    15   ar
    20    15    16   ar
    21    22    18   ar
    22    10     4   ar
    23    16    12   ar
    24     1     3    1
@<TRIPOS>MOLECULE
*****
 22 24 0 0 0
SMALL
GASTEIGER

@<TRIPOS>ATOM
      1 O          64.3884   92.5742   11.8459 O.3     1  UNL1       -0.3625
      2 C          65.6570   92.6478   12.6429 C.3     1  UNL1        0.2216
      3 H          63.9834   93.4544   11.8006 H       1  UNL1        0.2127
      4 C          66.3463   93.3063   11.4847 C.ar    1  UNL1        0.0530
      5 C          66.9519   92.4687   10.3976 C.ar    1  UNL1        0.0045
      6 C          67.6412   93.1271    9.2394 C.ar    1  UNL1        0.0296
      7 C          67.7250   94.6230    9.1684 C.ar    1  UNL1        0.1424
      8 F          68.4143   95.2815    8.0102 F       1  UNL1       -0.2041
      9 C          67.1194   95.4606   10.2555 C.ar    1  UNL1        0.0591
     10 C          66.4301   94.8022   11.4136 C.ar    1  UNL1        0.1425
     11 F          65.8246   95.6398   12.5007 F       1  UNL1       -0.2043
     12 N          66.9256   92.7215   13.4398 N.ar    1  UNL1       -0.2031
     13 C          67.1537   93.5665   14.6581 C.ar    1  UNL1        0.1995
     14 N          68.5579   93.3303   15.1297 N.ar    1  UNL1       -0.2007
     15 C          69.1976   92.3394   14.2031 C.ar    1  UNL1        0.2211
     16 N          68.1888   91.9630   13.1586 N.ar    1  UNL1       -0.1429
     17 C          64.9676   91.9894   13.8010 C.3     1  UNL1        0.1825
     18 N          64.5097   90.5653   13.6901 N.ar    1  UNL1       -0.2445
     19 C          64.7564   89.4791   14.6948 C.ar    1  UNL1        0.0969
     20 C          64.1238   88.2199   14.1808 C.ar    1  UNL1        0.0427
     21 C          63.4861   88.5278   12.8584 C.ar    1  UNL1        0.1217
     22 N          63.7246   89.9774   12.5552 N.ar    1  UNL1       -0.1675
@<TRIPOS>BOND
     1     2     1    1
     2     2    17    1
     3    17    18    1
     4    18    19   ar
     5    19    20   ar
     6    20    21   ar
     7    21    22   ar
     8     2     4    1
     9     4     5   ar
    10     5     6   ar
    11     6     7   ar
    12     7     8    1
    13     7     9   ar
    14     9    10   ar
    15    10    11    1
    16     2    12    1
    17    12    13   ar
    18    13    14   ar
    19    14    15   ar
    20    15    16   ar
    21    22    18   ar
    22    10     4   ar
    23    16    12   ar
    24     1     3    1
