@<TRIPOS>MOLECULE
*****
 46 52 0 0 0
SMALL
GASTEIGER

@<TRIPOS>ATOM
      1 C          59.9133   88.8898    8.5549 C.3     1  UNL1        0.1544
      2 N          60.3477   89.6624    7.3448 N.am    1  UNL1       -0.2822
      3 C          59.3217   90.2645    6.4312 C.2     1  UNL1        0.3043
      4 O          57.8612   90.0940    6.7277 O.2     1  UNL1       -0.2526
      5 N          59.7560   91.0370    5.2210 N.am    1  UNL1       -0.2641
      6 C          61.2165   91.2076    4.9244 C.3     1  UNL1        0.0967
      7 C          61.6508   91.9801    3.7143 C.3     1  UNL1        0.0418
      8 C          60.6247   92.5822    2.8007 C.3     1  UNL1        0.0848
      9 C          59.1643   92.4117    3.0973 C.3     1  UNL1        0.0418
     10 C          58.7299   91.6391    4.3075 C.3     1  UNL1        0.0967
     11 H          61.3063   89.7743    7.1501 H       1  UNL1        0.1514
     12 N          61.0591   93.3547    1.5906 N.am    1  UNL1       -0.2422
     13 C          60.1629   93.8622    0.5000 C.2     1  UNL1        0.3310
     14 O          58.6750   93.6862    0.4281 O.2     1  UNL1       -0.2501
     15 N          61.0159   94.5766   -0.5061 N.am    1  UNL1       -0.1647
     16 C          62.4393   94.5106   -0.0372 C.2     1  UNL1        0.0706
     17 C          63.7145   95.0407   -0.6228 C.3     1  UNL1        0.0705
     18 C          65.0164   94.8155    0.0873 C.2     1  UNL1       -0.0199
     19 C          65.0431   94.0604    1.3830 C.2     1  UNL1       -0.0029
     20 C          63.7679   93.5304    1.9687 C.2     1  UNL1        0.0156
     21 C          62.4660   93.7555    1.2585 C.2     1  UNL1        0.0668
     22 C          59.8683   89.5599    9.8962 C.2     1  UNL1        0.2439
     23 O          58.5533   89.7666   10.5874 O.2     1  UNL1       -0.2731
     24 N          61.1383   90.0232   10.5461 N.am    1  UNL1       -0.2781
     25 C          61.0933   90.6933   11.8874 C.3     1  UNL1        0.0948
     26 C          62.3633   91.1566   12.5373 C.3     1  UNL1        0.0375
     27 C          63.6783   90.9498   11.8460 C.3     1  UNL1        0.0609
     28 C          63.7234   90.2798   10.5047 C.3     1  UNL1        0.0375
     29 C          62.4533   89.8164    9.8548 C.3     1  UNL1        0.0948
     30 N          64.9483   91.4131   12.4959 N.3     1  UNL1       -0.2738
     31 C          65.2773   90.9790   13.8935 C.3     1  UNL1        0.0720
     32 C          66.5473   91.4423   14.5435 C.3     1  UNL1        0.0174
     33 C          67.4884   92.3397   13.7959 C.3     1  UNL1        0.0029
     34 C          67.1594   92.7738   12.3982 C.3     1  UNL1        0.0174
     35 C          65.8894   92.3105   11.7483 C.3     1  UNL1        0.0720
     36 C          59.5240   87.4471    8.4238 C.3     1  UNL1        0.0569
     37 C          62.6017   84.0183    5.8448 C.3     1  UNL1        0.1305
     38 N          61.9828   84.8367    6.9390 N.ar    1  UNL1       -0.3243
     39 C          60.8710   85.8302    6.7757 C.ar    1  UNL1        0.0717
     40 C          60.5682   86.4127    8.1244 C.ar    1  UNL1       -0.0014
     41 C          61.4929   85.7792    9.1212 C.ar    1  UNL1        0.0133
     42 C          61.6518   85.9635   10.6013 C.ar    1  UNL1        0.0012
     43 C          62.6850   85.1738   11.3488 C.ar    1  UNL1        0.0001
     44 C          63.5593   84.1997   10.6161 C.ar    1  UNL1        0.0015
     45 C          63.4004   84.0154    9.1360 C.ar    1  UNL1        0.0172
     46 C          62.3672   84.8052    8.3886 C.ar    1  UNL1        0.0597
@<TRIPOS>BOND
     1    37    38    1
     2    38    39   ar
     3    39    40   ar
     4    40    36    1
     5     1    36    1
     6     1     2    1
     7     2     3   am
     8     3     4    2
     9     3     5   am
    10     5     6    1
    11     6     7    1
    12     7     8    1
    13     8    12    1
    14    12    13   am
    15    13    14    2
    16    13    15    1
    17    15    16    2
    18    16    17    1
    19    17    18    1
    20    18    19    2
    21    19    20    1
    22    20    21    2
    23     8     9    1
    24     9    10    1
    25     1    22    1
    26    22    23    2
    27    22    24   am
    28    24    25    1
    29    25    26    1
    30    26    27    1
    31    27    30    1
    32    30    31    1
    33    31    32    1
    34    32    33    1
    35    33    34    1
    36    34    35    1
    37    27    28    1
    38    28    29    1
    39    40    41   ar
    40    41    42   ar
    41    42    43   ar
    42    43    44   ar
    43    44    45   ar
    44    45    46   ar
    45    46    38   ar
    46    10     5    1
    47    29    24    1
    48    46    41   ar
    49    21    12    1
    50    35    30    1
    51    21    16    1
    52     2    11    1
@<TRIPOS>MOLECULE
*****
 46 52 0 0 0
SMALL
GASTEIGER

@<TRIPOS>ATOM
      1 C          59.9612   88.9854    8.4944 C.3     1  UNL1        0.1544
      2 N          60.4300   89.7018    7.2628 N.am    1  UNL1       -0.2822
      3 C          59.4353   90.3608    6.3539 C.2     1  UNL1        0.3043
      4 O          57.9715   90.3032    6.6767 O.2     1  UNL1       -0.2526
      5 N          59.9041   91.0772    5.1223 N.am    1  UNL1       -0.2641
      6 C          61.3679   91.1348    4.7996 C.3     1  UNL1        0.0967
      7 C          61.8367   91.8512    3.5680 C.3     1  UNL1        0.0418
      8 C          60.8418   92.5101    2.6591 C.3     1  UNL1        0.0848
      9 C          59.3781   92.4526    2.9819 C.3     1  UNL1        0.0418
     10 C          58.9092   91.7361    4.2135 C.3     1  UNL1        0.0967
     11 H          61.3908   89.7396    7.0510 H       1  UNL1        0.1514
     12 N          61.3107   93.2266    1.4275 N.am    1  UNL1       -0.2422
     13 C          62.5417   94.0766    1.3168 C.2     1  UNL1        0.3310
     14 O          63.5198   94.3594    2.4182 O.2     1  UNL1       -0.2501
     15 N          62.6226   94.5942   -0.0888 N.am    1  UNL1       -0.1647
     16 C          61.4417   94.0640   -0.8468 C.2     1  UNL1        0.0706
     17 C          61.0000   94.2416   -2.2692 C.3     1  UNL1        0.0705
     18 C          59.7475   93.5741   -2.7545 C.2     1  UNL1       -0.0199
     19 C          58.9367   92.7289   -1.8174 C.2     1  UNL1       -0.0029
     20 C          59.3784   92.5512   -0.3950 C.2     1  UNL1        0.0156
     21 C          60.6309   93.2188    0.0904 C.2     1  UNL1        0.0668
     22 C          59.9045   89.7089    9.8072 C.2     1  UNL1        0.2439
     23 O          58.5787   90.0105   10.4406 O.2     1  UNL1       -0.2731
     24 N          61.1736   90.1308   10.4865 N.am    1  UNL1       -0.2781
     25 C          61.1169   90.8543   11.7992 C.3     1  UNL1        0.0948
     26 C          62.3860   91.2761   12.4785 C.3     1  UNL1        0.0375
     27 C          63.7117   90.9744   11.8451 C.3     1  UNL1        0.0609
     28 C          63.7684   90.2509   10.5323 C.3     1  UNL1        0.0375
     29 C          62.4993   89.8291    9.8530 C.3     1  UNL1        0.0948
     30 N          64.9808   91.3963   12.5244 N.3     1  UNL1       -0.2738
     31 C          65.9843   92.2322   11.7866 C.3     1  UNL1        0.0720
     32 C          67.2534   92.6540   12.4659 C.3     1  UNL1        0.0174
     33 C          67.5191   92.2400   13.8829 C.3     1  UNL1        0.0029
     34 C          66.5155   91.4042   14.6207 C.3     1  UNL1        0.0174
     35 C          65.2465   90.9823   13.9414 C.3     1  UNL1        0.0720
     36 C          59.5490   87.5453    8.4133 C.3     1  UNL1        0.0569
     37 C          62.5525   84.0370    5.8539 C.3     1  UNL1        0.1305
     38 N          61.9521   84.8753    6.9432 N.ar    1  UNL1       -0.3243
     39 C          60.8603   85.8900    6.7746 C.ar    1  UNL1        0.0717
     40 C          60.5716   86.4879    8.1196 C.ar    1  UNL1       -0.0014
     41 C          61.4849   85.8429    9.1195 C.ar    1  UNL1        0.0133
     42 C          61.6499   86.0343   10.5980 C.ar    1  UNL1        0.0012
     43 C          62.6681   85.2290   11.3494 C.ar    1  UNL1        0.0001
     44 C          63.5214   84.2323   10.6224 C.ar    1  UNL1        0.0015
     45 C          63.3564   84.0409    9.1438 C.ar    1  UNL1        0.0172
     46 C          62.3382   84.8462    8.3924 C.ar    1  UNL1        0.0597
@<TRIPOS>BOND
     1    37    38    1
     2    38    39   ar
     3    39    40   ar
     4    40    36    1
     5     1    36    1
     6     1     2    1
     7     2     3   am
     8     3     4    2
     9     3     5   am
    10     5     6    1
    11     6     7    1
    12     7     8    1
    13     8    12    1
    14    12    13   am
    15    13    14    2
    16    13    15    1
    17    15    16    2
    18    16    17    1
    19    17    18    1
    20    18    19    2
    21    19    20    1
    22    20    21    2
    23     8     9    1
    24     9    10    1
    25     1    22    1
    26    22    23    2
    27    22    24   am
    28    24    25    1
    29    25    26    1
    30    26    27    1
    31    27    30    1
    32    30    31    1
    33    31    32    1
    34    32    33    1
    35    33    34    1
    36    34    35    1
    37    27    28    1
    38    28    29    1
    39    40    41   ar
    40    41    42   ar
    41    42    43   ar
    42    43    44   ar
    43    44    45   ar
    44    45    46   ar
    45    46    38   ar
    46    10     5    1
    47    29    24    1
    48    46    41   ar
    49    21    12    1
    50    35    30    1
    51    21    16    1
    52     2    11    1
@<TRIPOS>MOLECULE
*****
 46 52 0 0 0
SMALL
GASTEIGER

@<TRIPOS>ATOM
      1 C          59.9693   89.3025    7.7284 C.3     1  UNL1        0.1544
      2 N          60.5912   89.9768    6.5415 N.am    1  UNL1       -0.2822
      3 C          59.7486   90.8207    5.6316 C.2     1  UNL1        0.3043
      4 O          58.2842   90.9903    5.9086 O.2     1  UNL1       -0.2526
      5 N          60.3705   91.4950    4.4448 N.am    1  UNL1       -0.2641
      6 C          61.8349   91.3254    4.1678 C.3     1  UNL1        0.0967
      7 C          62.4567   91.9997    2.9809 C.3     1  UNL1        0.0418
      8 C          61.6141   92.8436    2.0710 C.3     1  UNL1        0.0848
      9 C          60.1497   93.0132    2.3480 C.3     1  UNL1        0.0418
     10 C          59.5279   92.3389    3.5349 C.3     1  UNL1        0.0967
     11 H          61.5523   89.8655    6.3598 H       1  UNL1        0.1514
     12 N          62.2359   93.5179    0.8842 N.am    1  UNL1       -0.2422
     13 C          61.8622   93.2968   -0.5516 C.2     1  UNL1        0.3310
     14 O          60.8010   92.3625   -1.0526 O.2     1  UNL1       -0.2501
     15 N          62.7360   94.1740   -1.3984 N.am    1  UNL1       -0.1647
     16 C          63.6498   94.9372   -0.4859 C.2     1  UNL1        0.0706
     17 C          64.7233   95.9491   -0.7574 C.3     1  UNL1        0.0705
     18 C          65.4879   96.5554    0.3818 C.2     1  UNL1       -0.0199
     19 C          65.1788   96.1500    1.7924 C.2     1  UNL1       -0.0029
     20 C          64.1053   95.1382    2.0639 C.2     1  UNL1        0.0156
     21 C          63.3408   94.5318    0.9247 C.2     1  UNL1        0.0668
     22 C          59.9232   87.8050    7.8013 C.2     1  UNL1        0.2439
     23 O          59.0606   87.0339    6.8467 O.2     1  UNL1       -0.2731
     24 N          60.7397   87.0786    8.8288 N.am    1  UNL1       -0.2781
     25 C          60.6936   85.5811    8.9017 C.3     1  UNL1        0.0948
     26 C          61.5101   84.8548    9.9292 C.3     1  UNL1        0.0375
     27 C          62.3727   85.6259   10.8838 C.3     1  UNL1        0.0609
     28 C          62.4188   87.1235   10.8108 C.3     1  UNL1        0.0375
     29 C          61.6023   87.8498    9.7833 C.3     1  UNL1        0.0948
     30 N          63.1892   84.8996   11.9112 N.3     1  UNL1       -0.2738
     31 C          63.6559   83.4991   11.6452 C.3     1  UNL1        0.0720
     32 C          64.4724   82.7727   12.6727 C.3     1  UNL1        0.0174
     33 C          64.8222   83.4468   13.9662 C.3     1  UNL1        0.0029
     34 C          64.3555   84.8473   14.2322 C.3     1  UNL1        0.0174
     35 C          63.5390   85.5737   13.2047 C.3     1  UNL1        0.0720
     36 C          59.3936   90.1258    8.8424 C.3     1  UNL1        0.0569
     37 C          60.0001   89.2092   14.0069 C.3     1  UNL1        0.1305
     38 N          60.2670   89.6265   12.5911 N.ar    1  UNL1       -0.3243
     39 C          59.3081   89.5144   11.4431 C.ar    1  UNL1        0.0717
     40 C          59.9883   90.0478   10.2173 C.ar    1  UNL1       -0.0014
     41 C          61.3676   90.4897   10.6076 C.ar    1  UNL1        0.0133
     42 C          62.4889   91.0954    9.8166 C.ar    1  UNL1        0.0012
     43 C          63.7825   91.4408   10.4928 C.ar    1  UNL1        0.0001
     44 C          63.9547   91.1804   11.9600 C.ar    1  UNL1        0.0015
     45 C          62.8334   90.5747   12.7509 C.ar    1  UNL1        0.0172
     46 C          61.5399   90.2293   12.0747 C.ar    1  UNL1        0.0597
@<TRIPOS>BOND
     1    37    38    1
     2    38    39   ar
     3    39    40   ar
     4    40    36    1
     5     1    36    1
     6     1     2    1
     7     2     3   am
     8     3     4    2
     9     3     5   am
    10     5     6    1
    11     6     7    1
    12     7     8    1
    13     8    12    1
    14    12    13   am
    15    13    14    2
    16    13    15    1
    17    15    16    2
    18    16    17    1
    19    17    18    1
    20    18    19    2
    21    19    20    1
    22    20    21    2
    23     8     9    1
    24     9    10    1
    25     1    22    1
    26    22    23    2
    27    22    24   am
    28    24    25    1
    29    25    26    1
    30    26    27    1
    31    27    30    1
    32    30    31    1
    33    31    32    1
    34    32    33    1
    35    33    34    1
    36    34    35    1
    37    27    28    1
    38    28    29    1
    39    40    41   ar
    40    41    42   ar
    41    42    43   ar
    42    43    44   ar
    43    44    45   ar
    44    45    46   ar
    45    46    38   ar
    46    10     5    1
    47    29    24    1
    48    46    41   ar
    49    21    12    1
    50    35    30    1
    51    21    16    1
    52     2    11    1
@<TRIPOS>MOLECULE
*****
 46 52 0 0 0
SMALL
GASTEIGER

@<TRIPOS>ATOM
      1 C          59.9957   89.3807    7.6568 C.3     1  UNL1        0.1544
      2 N          60.6440   90.0026    6.4556 N.am    1  UNL1       -0.2822
      3 C          59.8443   90.8863    5.5448 C.2     1  UNL1        0.3043
      4 O          58.3962   91.1481    5.8354 O.2     1  UNL1       -0.2526
      5 N          60.4926   91.5081    4.3436 N.am    1  UNL1       -0.2641
      6 C          61.9407   91.2462    4.0530 C.3     1  UNL1        0.0967
      7 C          62.5890   91.8680    2.8518 C.3     1  UNL1        0.0418
      8 C          61.7893   92.7517    1.9411 C.3     1  UNL1        0.0848
      9 C          60.3411   93.0136    2.2316 C.3     1  UNL1        0.0418
     10 C          59.6928   92.3918    3.4329 C.3     1  UNL1        0.0967
     11 H          61.5944   89.8307    6.2649 H       1  UNL1        0.1514
     12 N          62.4376   93.3735    0.7398 N.am    1  UNL1       -0.2422
     13 C          63.8142   93.9672    0.6891 C.2     1  UNL1        0.3310
     14 O          64.7841   94.0433    1.8308 O.2     1  UNL1       -0.2501
     15 N          64.0505   94.4714   -0.7037 N.am    1  UNL1       -0.1647
     16 C          62.8199   94.1894   -1.5138 C.2     1  UNL1        0.0706
     17 C          62.4783   94.4628   -2.9486 C.3     1  UNL1        0.0705
     18 C          61.1399   94.0576   -3.4912 C.2     1  UNL1       -0.0199
     19 C          60.1431   93.3791   -2.5991 C.2     1  UNL1       -0.0029
     20 C          60.4847   93.1057   -1.1643 C.2     1  UNL1        0.0156
     21 C          61.8231   93.5109   -0.6217 C.2     1  UNL1        0.0668
     22 C          59.8788   87.8887    7.7579 C.2     1  UNL1        0.2439
     23 O          58.9397   87.1471    6.8535 O.2     1  UNL1       -0.2731
     24 N          60.7010   87.1384    8.7634 N.am    1  UNL1       -0.2781
     25 C          60.5841   85.6464    8.8645 C.3     1  UNL1        0.0948
     26 C          61.4063   84.8961    9.8700 C.3     1  UNL1        0.0375
     27 C          62.3454   85.6378   10.7744 C.3     1  UNL1        0.0609
     28 C          62.4623   87.1299   10.6733 C.3     1  UNL1        0.0375
     29 C          61.6401   87.8802    9.6678 C.3     1  UNL1        0.0948
     30 N          63.1676   84.8875   11.7799 N.3     1  UNL1       -0.2738
     31 C          63.4660   85.5038   13.1145 C.3     1  UNL1        0.0720
     32 C          64.2882   84.7535   14.1200 C.3     1  UNL1        0.0174
     33 C          64.8120   83.3870   13.7910 C.3     1  UNL1        0.0029
     34 C          64.5135   82.7707   12.4564 C.3     1  UNL1        0.0174
     35 C          63.6913   83.5210   11.4509 C.3     1  UNL1        0.0720
     36 C          59.4642   90.2510    8.7570 C.3     1  UNL1        0.0569
     37 C          59.8594   89.1531   13.9067 C.3     1  UNL1        0.1305
     38 N          60.1876   89.6100   12.5161 N.ar    1  UNL1       -0.3243
     39 C          59.2694   89.5575   11.3312 C.ar    1  UNL1        0.0717
     40 C          60.0059   90.1146   10.1492 C.ar    1  UNL1       -0.0014
     41 C          61.3792   90.5114   10.6036 C.ar    1  UNL1        0.0133
     42 C          62.5420   91.1165    9.8743 C.ar    1  UNL1        0.0012
     43 C          63.8170   91.4096   10.6080 C.ar    1  UNL1        0.0001
     44 C          63.9293   91.0977   12.0709 C.ar    1  UNL1        0.0015
     45 C          62.7665   90.4927   12.8002 C.ar    1  UNL1        0.0172
     46 C          61.4915   90.1996   12.0665 C.ar    1  UNL1        0.0597
@<TRIPOS>BOND
     1    37    38    1
     2    38    39   ar
     3    39    40   ar
     4    40    36    1
     5     1    36    1
     6     1     2    1
     7     2     3   am
     8     3     4    2
     9     3     5   am
    10     5     6    1
    11     6     7    1
    12     7     8    1
    13     8    12    1
    14    12    13   am
    15    13    14    2
    16    13    15    1
    17    15    16    2
    18    16    17    1
    19    17    18    1
    20    18    19    2
    21    19    20    1
    22    20    21    2
    23     8     9    1
    24     9    10    1
    25     1    22    1
    26    22    23    2
    27    22    24   am
    28    24    25    1
    29    25    26    1
    30    26    27    1
    31    27    30    1
    32    30    31    1
    33    31    32    1
    34    32    33    1
    35    33    34    1
    36    34    35    1
    37    27    28    1
    38    28    29    1
    39    40    41   ar
    40    41    42   ar
    41    42    43   ar
    42    43    44   ar
    43    44    45   ar
    44    45    46   ar
    45    46    38   ar
    46    10     5    1
    47    29    24    1
    48    46    41   ar
    49    21    12    1
    50    35    30    1
    51    21    16    1
    52     2    11    1
@<TRIPOS>MOLECULE
*****
 46 52 0 0 0
SMALL
GASTEIGER

@<TRIPOS>ATOM
      1 C          60.5588   93.5984    1.0838 C.3     1  UNL1        0.1544
      2 N          60.6919   92.7752    2.3307 N.am    1  UNL1       -0.2822
      3 C          59.4653   92.3359    3.0739 C.2     1  UNL1        0.3043
      4 O          58.1055   92.7196    2.5701 O.2     1  UNL1       -0.2526
      5 N          59.5983   91.5127    4.3207 N.am    1  UNL1       -0.2641
      6 C          60.9581   91.1290    4.8245 C.3     1  UNL1        0.0967
      7 C          61.0912   90.3058    6.0714 C.3     1  UNL1        0.0418
      8 C          59.8645   89.8665    6.8145 C.3     1  UNL1        0.0848
      9 C          58.5047   90.2502    6.3107 C.3     1  UNL1        0.0418
     10 C          58.3717   91.0734    5.0638 C.3     1  UNL1        0.0967
     11 H          61.5843   92.5234    2.6613 H       1  UNL1        0.1514
     12 N          59.9976   89.0434    8.0614 N.am    1  UNL1       -0.2422
     13 C          59.2968   87.7469    8.3410 C.2     1  UNL1        0.3310
     14 O          58.3398   87.0460    7.4229 O.2     1  UNL1       -0.2501
     15 N          59.7210   87.2745    9.7001 N.am    1  UNL1       -0.1647
     16 C          60.6839   88.2790   10.2604 C.2     1  UNL1        0.0706
     17 C          61.4272   88.3393   11.5619 C.3     1  UNL1        0.0705
     18 C          62.3414   89.4929   11.8506 C.2     1  UNL1       -0.0199
     19 C          62.5124   90.5861   10.8379 C.2     1  UNL1       -0.0029
     20 C          61.7691   90.5257    9.5364 C.2     1  UNL1        0.0156
     21 C          60.8549   89.3721    9.2476 C.2     1  UNL1        0.0668
     22 C          60.1081   92.9558   -0.1945 C.2     1  UNL1        0.2439
     23 O          60.8442   91.7664   -0.7361 O.2     1  UNL1       -0.2731
     24 N          58.9214   93.5028   -0.9311 N.am    1  UNL1       -0.2781
     25 C          58.4708   92.8602   -2.2095 C.3     1  UNL1        0.0948
     26 C          57.2841   93.4072   -2.9461 C.3     1  UNL1        0.0375
     27 C          56.5481   94.5966   -2.4044 C.3     1  UNL1        0.0609
     28 C          56.9987   95.2391   -1.1261 C.3     1  UNL1        0.0375
     29 C          58.1854   94.6922   -0.3895 C.3     1  UNL1        0.0948
     30 N          55.3614   95.1435   -3.1410 N.3     1  UNL1       -0.2738
     31 C          54.1909   95.6890   -2.3778 C.3     1  UNL1        0.0720
     32 C          53.0043   96.2359   -3.1144 C.3     1  UNL1        0.0174
     33 C          52.9879   96.2374   -4.6143 C.3     1  UNL1        0.0029
     34 C          54.1584   95.6920   -5.3776 C.3     1  UNL1        0.0174
     35 C          55.3451   95.1451   -4.6409 C.3     1  UNL1        0.0720
     36 C          60.8763   95.0641    1.1152 C.3     1  UNL1        0.0569
     37 C          65.7271   96.8557    2.1833 C.3     1  UNL1        0.1305
     38 N          64.5232   96.3516    1.4441 N.ar    1  UNL1       -0.3243
     39 C          63.2055   95.9780    2.0559 C.ar    1  UNL1        0.0717
     40 C          62.2936   95.5281    0.9532 C.ar    1  UNL1       -0.0014
     41 C          63.0476   95.6236   -0.3400 C.ar    1  UNL1        0.0133
     42 C          62.6574   95.3128   -1.7546 C.ar    1  UNL1        0.0012
     43 C          63.6453   95.5110   -2.8658 C.ar    1  UNL1        0.0001
     44 C          65.0233   96.0200   -2.5624 C.ar    1  UNL1        0.0015
     45 C          65.4135   96.3307   -1.1478 C.ar    1  UNL1        0.0172
     46 C          64.4256   96.1325   -0.0366 C.ar    1  UNL1        0.0597
@<TRIPOS>BOND
     1    37    38    1
     2    38    39   ar
     3    39    40   ar
     4    40    36    1
     5     1    36    1
     6     1     2    1
     7     2     3   am
     8     3     4    2
     9     3     5   am
    10     5     6    1
    11     6     7    1
    12     7     8    1
    13     8    12    1
    14    12    13   am
    15    13    14    2
    16    13    15    1
    17    15    16    2
    18    16    17    1
    19    17    18    1
    20    18    19    2
    21    19    20    1
    22    20    21    2
    23     8     9    1
    24     9    10    1
    25     1    22    1
    26    22    23    2
    27    22    24   am
    28    24    25    1
    29    25    26    1
    30    26    27    1
    31    27    30    1
    32    30    31    1
    33    31    32    1
    34    32    33    1
    35    33    34    1
    36    34    35    1
    37    27    28    1
    38    28    29    1
    39    40    41   ar
    40    41    42   ar
    41    42    43   ar
    42    43    44   ar
    43    44    45   ar
    44    45    46   ar
    45    46    38   ar
    46    10     5    1
    47    29    24    1
    48    46    41   ar
    49    21    12    1
    50    35    30    1
    51    21    16    1
    52     2    11    1
@<TRIPOS>MOLECULE
*****
 46 52 0 0 0
SMALL
GASTEIGER

@<TRIPOS>ATOM
      1 C          60.2853   89.3022    8.5803 C.3     1  UNL1        0.1544
      2 N          60.6560   89.9791    7.2941 N.am    1  UNL1       -0.2822
      3 C          59.5834   90.5035    6.3862 C.2     1  UNL1        0.3043
      4 O          58.1399   90.3510    6.7645 O.2     1  UNL1       -0.2526
      5 N          59.9541   91.1805    5.1000 N.am    1  UNL1       -0.2641
      6 C          61.3976   91.3331    4.7217 C.3     1  UNL1        0.0967
      7 C          61.7683   92.0100    3.4355 C.3     1  UNL1        0.0418
      8 C          60.6956   92.5344    2.5277 C.3     1  UNL1        0.0848
      9 C          59.2521   92.3819    2.9060 C.3     1  UNL1        0.0418
     10 C          58.8814   91.7049    4.1922 C.3     1  UNL1        0.0967
     11 H          61.6034   90.0792    7.0458 H       1  UNL1        0.1514
     12 N          61.0663   93.2114    1.2415 N.am    1  UNL1       -0.2422
     13 C          62.2755   94.0691    1.0133 C.2     1  UNL1        0.3310
     14 O          63.3263   94.4005    2.0311 O.2     1  UNL1       -0.2501
     15 N          62.2494   94.5373   -0.4116 N.am    1  UNL1       -0.1647
     16 C          61.0240   93.9689   -1.0640 C.2     1  UNL1        0.0706
     17 C          60.4796   94.0916   -2.4563 C.3     1  UNL1        0.0705
     18 C          59.2041   93.3949   -2.8270 C.2     1  UNL1       -0.0199
     19 C          58.4729   92.5755   -1.8053 C.2     1  UNL1       -0.0029
     20 C          59.0173   92.4527   -0.4130 C.2     1  UNL1        0.0156
     21 C          60.2929   93.1494   -0.0423 C.2     1  UNL1        0.0668
     22 C          60.2170   90.0943    9.8522 C.2     1  UNL1        0.2439
     23 O          58.8881   90.5336   10.3916 O.2     1  UNL1       -0.2731
     24 N          61.4775   90.4471   10.5847 N.am    1  UNL1       -0.2781
     25 C          61.4092   91.2393   11.8567 C.3     1  UNL1        0.0948
     26 C          62.6697   91.5920   12.5892 C.3     1  UNL1        0.0375
     27 C          63.9986   91.1527   12.0497 C.3     1  UNL1        0.0609
     28 C          64.0669   90.3605   10.7778 C.3     1  UNL1        0.0375
     29 C          62.8064   90.0077   10.0453 C.3     1  UNL1        0.0948
     30 N          65.2591   91.5054   12.7823 N.3     1  UNL1       -0.2738
     31 C          65.4205   91.1241   14.2240 C.3     1  UNL1        0.0720
     32 C          66.6811   91.4768   14.9565 C.3     1  UNL1        0.0174
     33 C          67.7802   92.2110   14.2474 C.3     1  UNL1        0.0029
     34 C          67.6188   92.5924   12.8057 C.3     1  UNL1        0.0174
     35 C          66.3582   92.2396   12.0732 C.3     1  UNL1        0.0720
     36 C          59.9829   87.8329    8.5946 C.3     1  UNL1        0.0569
     37 C          62.0061   85.4092   12.8268 C.3     1  UNL1        0.1305
     38 N          61.7172   85.7960   11.4067 N.ar    1  UNL1       -0.3243
     39 C          60.7620   86.8629   10.9604 C.ar    1  UNL1        0.0717
     40 C          60.7872   86.9100    9.4613 C.ar    1  UNL1       -0.0014
     41 C          61.7581   85.8723    8.9812 C.ar    1  UNL1        0.0133
     42 C          62.1929   85.4653    7.6045 C.ar    1  UNL1        0.0012
     43 C          63.2026   84.3698    7.4302 C.ar    1  UNL1        0.0001
     44 C          63.7774   83.6813    8.6325 C.ar    1  UNL1        0.0015
     45 C          63.3425   84.0882   10.0091 C.ar    1  UNL1        0.0172
     46 C          62.3328   85.1837   10.1835 C.ar    1  UNL1        0.0597
@<TRIPOS>BOND
     1    37    38    1
     2    38    39   ar
     3    39    40   ar
     4    40    36    1
     5     1    36    1
     6     1     2    1
     7     2     3   am
     8     3     4    2
     9     3     5   am
    10     5     6    1
    11     6     7    1
    12     7     8    1
    13     8    12    1
    14    12    13   am
    15    13    14    2
    16    13    15    1
    17    15    16    2
    18    16    17    1
    19    17    18    1
    20    18    19    2
    21    19    20    1
    22    20    21    2
    23     8     9    1
    24     9    10    1
    25     1    22    1
    26    22    23    2
    27    22    24   am
    28    24    25    1
    29    25    26    1
    30    26    27    1
    31    27    30    1
    32    30    31    1
    33    31    32    1
    34    32    33    1
    35    33    34    1
    36    34    35    1
    37    27    28    1
    38    28    29    1
    39    40    41   ar
    40    41    42   ar
    41    42    43   ar
    42    43    44   ar
    43    44    45   ar
    44    45    46   ar
    45    46    38   ar
    46    10     5    1
    47    29    24    1
    48    46    41   ar
    49    21    12    1
    50    35    30    1
    51    21    16    1
    52     2    11    1
