@<TRIPOS>MOLECULE
*****
 33 37 0 0 0
SMALL
GASTEIGER

@<TRIPOS>ATOM
      1 N          63.9520   89.8368   15.8588 N.3     1  UNL1       -0.2710
      2 C          63.3182   88.7875   16.7233 C.3     1  UNL1        0.0728
      3 C          63.1246   87.3970   16.1951 C.3     1  UNL1        0.0298
      4 C          63.5648   87.0558   14.8023 C.3     1  UNL1        0.1147
      5 C          64.1986   88.1051   13.9379 C.3     1  UNL1        0.0298
      6 C          64.3922   89.4956   14.4661 C.3     1  UNL1        0.0728
      7 C          63.3713   85.6653   14.2740 C.2     1  UNL1        0.3507
      8 N          63.5564   85.2291   12.8509 N.2     1  UNL1       -0.0350
      9 C          63.2581   83.7611   12.7734 C.2     1  UNL1        0.2324
     10 C          63.2752   82.7925   11.6283 C.2     1  UNL1        0.0598
     11 C          62.9228   81.3527   11.8585 C.2     1  UNL1        0.0648
     12 C          62.5534   80.8816   13.2338 C.2     1  UNL1       -0.0258
     13 C          62.2011   79.4419   13.4640 C.3     1  UNL1        0.0275
     14 C          62.5363   81.8503   14.3790 C.3     1  UNL1        0.1004
     15 C          62.8887   83.2900   14.1488 C.2     1  UNL1        0.2171
     16 N          62.9586   84.4669   15.0762 N.2     1  UNL1       -0.0389
     17 C          62.9399   80.3840   10.7133 C.1     1  UNL1        0.0999
     18 N          62.9570   79.4153    9.5682 N.1     1  UNL1       -0.1908
     19 C          64.1455   91.2273   16.3871 C.3     1  UNL1        0.0970
     20 C          64.5567   92.3317   15.4591 C.3     1  UNL1        0.1264
     21 C          65.1175   92.2667   10.9947 C.ar    1  UNL1        0.1593
     22 C          66.4996   92.2813   10.4121 C.ar    1  UNL1        0.1357
     23 N          67.6949   92.3175   11.3177 N.ar    1  UNL1       -0.2392
     24 C          67.5080   92.3392   12.8058 C.ar    1  UNL1        0.0975
     25 C          68.7032   92.3754   13.7114 C.ar    1  UNL1        0.0255
     26 C          68.5163   92.3971   15.1995 C.ar    1  UNL1        0.0623
     27 C          67.1341   92.3825   15.7821 C.ar    1  UNL1        0.2611
     28 O          66.9472   92.4042   17.2702 O.2     1  UNL1       -0.2670
     29 N          65.9389   92.3463   14.8766 N.ar    1  UNL1       -0.2926
     30 C          66.1258   92.3246   13.3884 C.ar    1  UNL1        0.0832
     31 C          64.9306   92.2884   12.4828 C.ar    1  UNL1        0.0573
     32 C          62.9481   91.0934   10.1780 C.3     1  UNL1        0.2525
     33 O          63.9222   92.2305   10.0891 O.3     1  UNL1       -0.4698
@<TRIPOS>BOND
     1    32    33    1
     2    33    21    1
     3    21    22   ar
     4    22    23   ar
     5    23    24   ar
     6    24    25   ar
     7    25    26   ar
     8    26    27   ar
     9    27    28    2
    10    27    29   ar
    11    29    20    1
    12    20    19    1
    13    19     1    1
    14     1     2    1
    15     2     3    1
    16     3     4    1
    17     4     7    1
    18     7     8    2
    19     8     9    1
    20     9    10    2
    21    10    11    1
    22    11    17    1
    23    17    18    3
    24    11    12    2
    25    12    13    1
    26    12    14    1
    27    14    15    1
    28    15    16    2
    29     4     5    1
    30     5     6    1
    31    29    30   ar
    32    30    31   ar
    33    31    21   ar
    34    30    24   ar
    35     6     1    1
    36    16     7    1
    37    15     9    1
@<TRIPOS>MOLECULE
*****
 33 37 0 0 0
SMALL
GASTEIGER

@<TRIPOS>ATOM
      1 N          72.3174   76.0658   14.2602 N.3     1  UNL1       -0.2710
      2 C          72.6333   77.5206   14.4434 C.3     1  UNL1        0.0728
      3 C          72.6584   78.4379   13.2568 C.3     1  UNL1        0.0298
      4 C          72.3677   77.9003   11.8870 C.3     1  UNL1        0.1147
      5 C          72.0518   76.4454   11.7038 C.3     1  UNL1        0.0298
      6 C          72.0267   75.5281   12.8904 C.3     1  UNL1        0.0728
      7 C          72.3928   78.8175   10.7004 C.2     1  UNL1        0.3507
      8 N          73.0085   78.5164    9.3661 N.2     1  UNL1       -0.0350
      9 C          72.8028   79.7097    8.4808 C.2     1  UNL1        0.2324
     10 C          73.1959   79.9848    7.0596 C.2     1  UNL1        0.0598
     11 C          72.8462   81.2985    6.4256 C.2     1  UNL1        0.0648
     12 C          72.1034   82.3371    7.2127 C.2     1  UNL1       -0.0258
     13 C          71.7538   83.6507    6.5786 C.3     1  UNL1        0.0275
     14 C          71.7103   82.0620    8.6339 C.3     1  UNL1        0.1004
     15 C          72.0600   80.7484    9.2680 C.2     1  UNL1        0.2171
     16 N          71.8066   80.1969   10.6397 N.2     1  UNL1       -0.0389
     17 C          73.2394   81.5736    5.0044 C.1     1  UNL1        0.0999
     18 N          73.6325   81.8486    3.5832 N.1     1  UNL1       -0.1908
     19 C          72.2923   75.1485   15.4468 C.3     1  UNL1        0.0970
     20 C          71.0431   74.3883   15.7808 C.3     1  UNL1        0.1264
     21 C          71.0344   70.8903   12.9499 C.ar    1  UNL1        0.1593
     22 C          71.1277   69.4922   13.4851 C.ar    1  UNL1        0.1357
     23 N          71.2240   69.2600   14.9639 N.ar    1  UNL1       -0.2392
     24 C          71.2269   70.4260   15.9075 C.ar    1  UNL1        0.0975
     25 C          71.3231   70.1938   17.3863 C.ar    1  UNL1        0.0255
     26 C          71.3260   71.3598   18.3299 C.ar    1  UNL1        0.0623
     27 C          71.2327   72.7580   17.7948 C.ar    1  UNL1        0.2611
     28 O          71.2356   73.9240   18.7384 O.2     1  UNL1       -0.2670
     29 N          71.1364   72.9902   16.3160 N.ar    1  UNL1       -0.2926
     30 C          71.1335   71.8241   15.3723 C.ar    1  UNL1        0.0832
     31 C          71.0373   72.0563   13.8935 C.ar    1  UNL1        0.0573
     32 C          69.6291   70.9282   10.7651 C.3     1  UNL1        0.2525
     33 O          70.9381   71.1225   11.4711 O.3     1  UNL1       -0.4698
@<TRIPOS>BOND
     1    32    33    1
     2    33    21    1
     3    21    22   ar
     4    22    23   ar
     5    23    24   ar
     6    24    25   ar
     7    25    26   ar
     8    26    27   ar
     9    27    28    2
    10    27    29   ar
    11    29    20    1
    12    20    19    1
    13    19     1    1
    14     1     2    1
    15     2     3    1
    16     3     4    1
    17     4     7    1
    18     7     8    2
    19     8     9    1
    20     9    10    2
    21    10    11    1
    22    11    17    1
    23    17    18    3
    24    11    12    2
    25    12    13    1
    26    12    14    1
    27    14    15    1
    28    15    16    2
    29     4     5    1
    30     5     6    1
    31    29    30   ar
    32    30    31   ar
    33    31    21   ar
    34    30    24   ar
    35     6     1    1
    36    16     7    1
    37    15     9    1
@<TRIPOS>MOLECULE
*****
 33 37 0 0 0
SMALL
GASTEIGER

@<TRIPOS>ATOM
      1 N          60.8794   89.2915   10.4473 N.3     1  UNL1       -0.2710
      2 C          60.7412   89.3937   11.9374 C.3     1  UNL1        0.0728
      3 C          61.8664   89.9501   12.7586 C.3     1  UNL1        0.0298
      4 C          63.1298   90.4043   12.0897 C.3     1  UNL1        0.1147
      5 C          63.2680   90.3021   10.5996 C.3     1  UNL1        0.0298
      6 C          62.1428   89.7457    9.7784 C.3     1  UNL1        0.0728
      7 C          64.2550   90.9607   12.9109 C.2     1  UNL1        0.3507
      8 N          64.7056   92.3912   12.9348 N.2     1  UNL1       -0.0350
      9 C          65.8563   92.4989   13.8910 C.2     1  UNL1        0.2324
     10 C          66.7004   93.6627   14.3186 C.2     1  UNL1        0.0598
     11 C          67.8052   93.4625   15.3133 C.2     1  UNL1        0.0648
     12 C          68.0658   92.0985   15.8803 C.2     1  UNL1       -0.0258
     13 C          69.1706   91.8984   16.8750 C.3     1  UNL1        0.0275
     14 C          67.2217   90.9347   15.4527 C.3     1  UNL1        0.1004
     15 C          66.1169   91.1348   14.4581 C.2     1  UNL1        0.2171
     16 N          65.1273   90.1842   13.8523 N.2     1  UNL1       -0.0389
     17 C          68.6494   94.6263   15.7409 C.1     1  UNL1        0.0999
     18 N          69.4936   95.7902   16.1685 N.1     1  UNL1       -0.1908
     19 C          59.7542   88.7351    9.6261 C.3     1  UNL1        0.0970
     20 C          59.5204   87.2541    9.5799 C.3     1  UNL1        0.1264
     21 C          62.6758   85.2382   12.0759 C.ar    1  UNL1        0.1593
     22 C          63.6854   84.3395   11.4257 C.ar    1  UNL1        0.1357
     23 N          63.6433   84.1127    9.9435 N.ar    1  UNL1       -0.2392
     24 C          62.5916   84.7847    9.1115 C.ar    1  UNL1        0.0975
     25 C          62.5495   84.5579    7.6294 C.ar    1  UNL1        0.0255
     26 C          61.4977   85.2298    6.7974 C.ar    1  UNL1        0.0623
     27 C          60.4880   86.1286    7.4476 C.ar    1  UNL1        0.2611
     28 O          59.4362   86.8006    6.6156 O.2     1  UNL1       -0.2670
     29 N          60.5301   86.3554    8.9298 N.ar    1  UNL1       -0.2926
     30 C          61.5819   85.6834    9.7617 C.ar    1  UNL1        0.0832
     31 C          61.6240   85.9102   11.2439 C.ar    1  UNL1        0.0573
     32 C          63.9429   85.0923   14.3393 C.3     1  UNL1        0.2525
     33 O          62.7179   85.4650   13.5580 O.3     1  UNL1       -0.4698
@<TRIPOS>BOND
     1    32    33    1
     2    33    21    1
     3    21    22   ar
     4    22    23   ar
     5    23    24   ar
     6    24    25   ar
     7    25    26   ar
     8    26    27   ar
     9    27    28    2
    10    27    29   ar
    11    29    20    1
    12    20    19    1
    13    19     1    1
    14     1     2    1
    15     2     3    1
    16     3     4    1
    17     4     7    1
    18     7     8    2
    19     8     9    1
    20     9    10    2
    21    10    11    1
    22    11    17    1
    23    17    18    3
    24    11    12    2
    25    12    13    1
    26    12    14    1
    27    14    15    1
    28    15    16    2
    29     4     5    1
    30     5     6    1
    31    29    30   ar
    32    30    31   ar
    33    31    21   ar
    34    30    24   ar
    35     6     1    1
    36    16     7    1
    37    15     9    1
@<TRIPOS>MOLECULE
*****
 33 37 0 0 0
SMALL
GASTEIGER

@<TRIPOS>ATOM
      1 N          63.5821   90.2672   12.6095 N.3     1  UNL1       -0.2710
      2 C          62.8752   89.6012   11.4664 C.3     1  UNL1        0.0728
      3 C          62.7082   88.1106   11.4540 C.3     1  UNL1        0.0298
      4 C          63.2481   87.2860   12.5847 C.3     1  UNL1        0.1147
      5 C          63.9551   87.9520   13.7278 C.3     1  UNL1        0.0298
      6 C          64.1221   89.4426   13.7402 C.3     1  UNL1        0.0728
      7 C          63.0811   85.7953   12.5723 C.2     1  UNL1        0.3507
      8 N          63.2808   84.8956   11.3889 N.2     1  UNL1       -0.0350
      9 C          63.0082   83.4869   11.8264 C.2     1  UNL1        0.2324
     10 C          63.0476   82.1814   11.0888 C.2     1  UNL1        0.0598
     11 C          62.7190   80.9051   11.8051 C.2     1  UNL1        0.0648
     12 C          62.3509   80.9343   13.2589 C.2     1  UNL1       -0.0258
     13 C          62.0222   79.6580   13.9751 C.3     1  UNL1        0.0275
     14 C          62.3114   82.2398   13.9965 C.3     1  UNL1        0.1004
     15 C          62.6401   83.5161   13.2803 C.2     1  UNL1        0.2171
     16 N          62.6852   84.9428   13.7412 N.2     1  UNL1       -0.0389
     17 C          62.7584   79.5995   11.0675 C.1     1  UNL1        0.0999
     18 N          62.7978   78.2940   10.3299 N.1     1  UNL1       -0.1908
     19 C          63.7491   91.7579   12.6219 C.3     1  UNL1        0.0970
     20 C          64.7925   92.4028   11.7586 C.3     1  UNL1        0.1264
     21 C          66.0784   92.4441   16.0707 C.ar    1  UNL1        0.1593
     22 C          67.5304   92.3090   16.4217 C.ar    1  UNL1        0.1357
     23 N          68.5539   92.1601   15.3352 N.ar    1  UNL1       -0.2392
     24 C          68.1253   92.1463   13.8979 C.ar    1  UNL1        0.0975
     25 C          69.1488   91.9974   12.8115 C.ar    1  UNL1        0.0255
     26 C          68.7202   91.9836   11.3741 C.ar    1  UNL1        0.0623
     27 C          67.2681   92.1188   11.0231 C.ar    1  UNL1        0.2611
     28 O          66.8395   92.1050    9.5857 O.2     1  UNL1       -0.2670
     29 N          66.2446   92.2677   12.1095 N.ar    1  UNL1       -0.2926
     30 C          66.6733   92.2814   13.5469 C.ar    1  UNL1        0.0832
     31 C          65.6498   92.4304   14.6334 C.ar    1  UNL1        0.0573
     32 C          63.7464   91.8663   17.0596 C.3     1  UNL1        0.2525
     33 O          65.0549   92.5931   17.1572 O.3     1  UNL1       -0.4698
@<TRIPOS>BOND
     1    32    33    1
     2    33    21    1
     3    21    22   ar
     4    22    23   ar
     5    23    24   ar
     6    24    25   ar
     7    25    26   ar
     8    26    27   ar
     9    27    28    2
    10    27    29   ar
    11    29    20    1
    12    20    19    1
    13    19     1    1
    14     1     2    1
    15     2     3    1
    16     3     4    1
    17     4     7    1
    18     7     8    2
    19     8     9    1
    20     9    10    2
    21    10    11    1
    22    11    17    1
    23    17    18    3
    24    11    12    2
    25    12    13    1
    26    12    14    1
    27    14    15    1
    28    15    16    2
    29     4     5    1
    30     5     6    1
    31    29    30   ar
    32    30    31   ar
    33    31    21   ar
    34    30    24   ar
    35     6     1    1
    36    16     7    1
    37    15     9    1
@<TRIPOS>MOLECULE
*****
 33 37 0 0 0
SMALL
GASTEIGER

@<TRIPOS>ATOM
      1 N          62.9550   89.8728   11.2918 N.3     1  UNL1       -0.2710
      2 C          62.3722   89.0236   10.2014 C.3     1  UNL1        0.0728
      3 C          62.3100   87.5336   10.3632 C.3     1  UNL1        0.0298
      4 C          62.8307   86.8930   11.6155 C.3     1  UNL1        0.1147
      5 C          63.4135   87.7422   12.7060 C.3     1  UNL1        0.0298
      6 C          63.4757   89.2321   12.5441 C.3     1  UNL1        0.0728
      7 C          62.7686   85.4030   11.7775 C.2     1  UNL1        0.3507
      8 N          63.0055   84.3882   10.6985 N.2     1  UNL1       -0.0350
      9 C          62.8419   83.0243   11.3010 C.2     1  UNL1        0.2324
     10 C          62.9571   81.6480   10.7156 C.2     1  UNL1        0.0598
     11 C          62.7343   80.4436   11.5816 C.2     1  UNL1        0.0648
     12 C          62.3963   80.6155   13.0328 C.2     1  UNL1       -0.0258
     13 C          62.1735   79.4111   13.8987 C.3     1  UNL1        0.0275
     14 C          62.2811   81.9917   13.6182 C.3     1  UNL1        0.1004
     15 C          62.5039   83.1961   12.7524 C.2     1  UNL1        0.2171
     16 N          62.4586   84.6662   13.0468 N.2     1  UNL1       -0.0389
     17 C          62.8494   79.0674   10.9962 C.1     1  UNL1        0.0999
     18 N          62.9646   77.6911   10.4108 N.1     1  UNL1       -0.1908
     19 C          63.0172   91.3628   11.1299 C.3     1  UNL1        0.0970
     20 C          63.4784   92.2224   12.2693 C.3     1  UNL1        0.1264
     21 C          67.3437   92.8498   10.0523 C.ar    1  UNL1        0.1593
     22 C          68.6513   92.5611   10.7281 C.ar    1  UNL1        0.1357
     23 N          68.6705   92.0633   12.1430 N.ar    1  UNL1       -0.2392
     24 C          67.3821   91.8542   12.8820 C.ar    1  UNL1        0.0975
     25 C          67.4013   91.3564   14.2968 C.ar    1  UNL1        0.0255
     26 C          66.1128   91.1473   15.0359 C.ar    1  UNL1        0.0623
     27 C          64.8051   91.4360   14.3600 C.ar    1  UNL1        0.2611
     28 O          63.5167   91.2268   15.0991 O.2     1  UNL1       -0.2670
     29 N          64.7860   91.9337   12.9452 N.ar    1  UNL1       -0.2926
     30 C          66.0745   92.1429   12.2061 C.ar    1  UNL1        0.0832
     31 C          66.0553   92.6407   10.7913 C.ar    1  UNL1        0.0573
     32 C          67.5211   94.8072    8.3531 C.3     1  UNL1        0.2525
     33 O          67.3245   93.3476    8.6374 O.3     1  UNL1       -0.4698
@<TRIPOS>BOND
     1    32    33    1
     2    33    21    1
     3    21    22   ar
     4    22    23   ar
     5    23    24   ar
     6    24    25   ar
     7    25    26   ar
     8    26    27   ar
     9    27    28    2
    10    27    29   ar
    11    29    20    1
    12    20    19    1
    13    19     1    1
    14     1     2    1
    15     2     3    1
    16     3     4    1
    17     4     7    1
    18     7     8    2
    19     8     9    1
    20     9    10    2
    21    10    11    1
    22    11    17    1
    23    17    18    3
    24    11    12    2
    25    12    13    1
    26    12    14    1
    27    14    15    1
    28    15    16    2
    29     4     5    1
    30     5     6    1
    31    29    30   ar
    32    30    31   ar
    33    31    21   ar
    34    30    24   ar
    35     6     1    1
    36    16     7    1
    37    15     9    1
@<TRIPOS>MOLECULE
*****
 33 37 0 0 0
SMALL
GASTEIGER

@<TRIPOS>ATOM
      1 N          63.4743   86.9375   14.4841 N.3     1  UNL1       -0.2710
      2 C          63.1091   87.3000   13.0751 C.3     1  UNL1        0.0728
      3 C          63.5258   88.6254   12.5097 C.3     1  UNL1        0.0298
      4 C          64.3077   89.5882   13.3532 C.3     1  UNL1        0.1147
      5 C          64.6729   89.2257   14.7622 C.3     1  UNL1        0.0298
      6 C          64.2562   87.9003   15.3276 C.3     1  UNL1        0.0728
      7 C          64.7244   90.9136   12.7878 C.2     1  UNL1        0.3507
      8 N          64.6459   91.3213   11.3464 N.2     1  UNL1       -0.0350
      9 C          65.1658   92.7236   11.2323 C.2     1  UNL1        0.2324
     10 C          65.3267   93.6419   10.0572 C.2     1  UNL1        0.0598
     11 C          65.8876   95.0193   10.2531 C.2     1  UNL1        0.0648
     12 C          66.2874   95.4784   11.6239 C.2     1  UNL1       -0.0258
     13 C          66.8482   96.8557   11.8197 C.3     1  UNL1        0.0275
     14 C          66.1264   94.5601   12.7990 C.3     1  UNL1        0.1004
     15 C          65.5656   93.1828   12.6032 C.2     1  UNL1        0.2171
     16 N          65.2929   92.0641   13.5646 N.2     1  UNL1       -0.0389
     17 C          66.0485   95.9376    9.0780 C.1     1  UNL1        0.0999
     18 N          66.2095   96.8559    7.9029 N.1     1  UNL1       -0.1908
     19 C          63.0576   85.6121   15.0496 C.3     1  UNL1        0.0970
     20 C          62.2764   84.6489   14.2057 C.3     1  UNL1        0.1264
     21 C          62.0804   86.0088    9.9206 C.ar    1  UNL1        0.1593
     22 C          62.7719   85.2175    8.8503 C.ar    1  UNL1        0.1357
     23 N          63.5288   83.9730    9.2083 N.ar    1  UNL1       -0.2392
     24 C          63.5942   83.5197   10.6367 C.ar    1  UNL1        0.0975
     25 C          64.3511   82.2751   10.9947 C.ar    1  UNL1        0.0255
     26 C          64.4164   81.8218   12.4231 C.ar    1  UNL1        0.0623
     27 C          63.7248   82.6131   13.4935 C.ar    1  UNL1        0.2611
     28 O          63.7902   82.1598   14.9218 O.2     1  UNL1       -0.2670
     29 N          62.9679   83.8577   13.1354 N.ar    1  UNL1       -0.2926
     30 C          62.9026   84.3109   11.7070 C.ar    1  UNL1        0.0832
     31 C          62.1457   85.5555   11.3489 C.ar    1  UNL1        0.0573
     32 C          60.2041   87.7291   10.4404 C.3     1  UNL1        0.2525
     33 O          61.3235   87.2533    9.5626 O.3     1  UNL1       -0.4698
@<TRIPOS>BOND
     1    32    33    1
     2    33    21    1
     3    21    22   ar
     4    22    23   ar
     5    23    24   ar
     6    24    25   ar
     7    25    26   ar
     8    26    27   ar
     9    27    28    2
    10    27    29   ar
    11    29    20    1
    12    20    19    1
    13    19     1    1
    14     1     2    1
    15     2     3    1
    16     3     4    1
    17     4     7    1
    18     7     8    2
    19     8     9    1
    20     9    10    2
    21    10    11    1
    22    11    17    1
    23    17    18    3
    24    11    12    2
    25    12    13    1
    26    12    14    1
    27    14    15    1
    28    15    16    2
    29     4     5    1
    30     5     6    1
    31    29    30   ar
    32    30    31   ar
    33    31    21   ar
    34    30    24   ar
    35     6     1    1
    36    16     7    1
    37    15     9    1
@<TRIPOS>MOLECULE
*****
 33 37 0 0 0
SMALL
GASTEIGER

@<TRIPOS>ATOM
      1 N          63.6656   90.1198   12.7233 N.3     1  UNL1       -0.2710
      2 C          64.2163   89.2729   13.8321 C.3     1  UNL1        0.0728
      3 C          64.0301   87.7848   13.8027 C.3     1  UNL1        0.0298
      4 C          63.2932   87.1436   12.6644 C.3     1  UNL1        0.1147
      5 C          62.7425   87.9905   11.5556 C.3     1  UNL1        0.0298
      6 C          62.9287   89.4786   11.5850 C.3     1  UNL1        0.0728
      7 C          63.1070   85.6555   12.6349 C.2     1  UNL1        0.3507
      8 N          63.3228   84.7632   11.4486 N.2     1  UNL1       -0.0350
      9 C          63.0215   83.3547   11.8671 C.2     1  UNL1        0.2324
     10 C          63.0612   82.0551   11.1191 C.2     1  UNL1        0.0598
     11 C          62.6989   80.7772   11.8161 C.2     1  UNL1        0.0648
     12 C          62.2968   80.7989   13.2610 C.2     1  UNL1       -0.0258
     13 C          61.9345   79.5210   13.9579 C.3     1  UNL1        0.0275
     14 C          62.2570   82.0985   14.0090 C.3     1  UNL1        0.1004
     15 C          62.6193   83.3764   13.3121 C.2     1  UNL1        0.2171
     16 N          62.6722   84.7983   13.7866 N.2     1  UNL1       -0.0389
     17 C          62.7387   79.4776   11.0681 C.1     1  UNL1        0.0999
     18 N          62.7784   78.1780   10.3201 N.1     1  UNL1       -0.1908
     19 C          63.8519   91.6079   12.7528 C.3     1  UNL1        0.0970
     20 C          64.1513   92.3007   14.0491 C.3     1  UNL1        0.1264
     21 C          67.6826   91.9615   11.2806 C.ar    1  UNL1        0.1593
     22 C          69.0743   91.9379   11.8397 C.ar    1  UNL1        0.1357
     23 N          69.2889   92.0273   13.3216 N.ar    1  UNL1       -0.2392
     24 C          68.1118   92.1403   14.2444 C.ar    1  UNL1        0.0975
     25 C          68.3264   92.2297   15.7263 C.ar    1  UNL1        0.0255
     26 C          67.1493   92.3428   16.6491 C.ar    1  UNL1        0.0623
     27 C          65.7575   92.3665   16.0900 C.ar    1  UNL1        0.2611
     28 O          64.5805   92.4796   17.0128 O.2     1  UNL1       -0.2670
     29 N          65.5429   92.2771   14.6082 N.ar    1  UNL1       -0.2926
     30 C          66.7201   92.1640   13.6853 C.ar    1  UNL1        0.0832
     31 C          66.5055   92.0746   12.2035 C.ar    1  UNL1        0.0573
     32 C          68.3220   92.6800    8.8672 C.3     1  UNL1        0.2525
     33 O          67.4680   91.8721    9.7988 O.3     1  UNL1       -0.4698
@<TRIPOS>BOND
     1    32    33    1
     2    33    21    1
     3    21    22   ar
     4    22    23   ar
     5    23    24   ar
     6    24    25   ar
     7    25    26   ar
     8    26    27   ar
     9    27    28    2
    10    27    29   ar
    11    29    20    1
    12    20    19    1
    13    19     1    1
    14     1     2    1
    15     2     3    1
    16     3     4    1
    17     4     7    1
    18     7     8    2
    19     8     9    1
    20     9    10    2
    21    10    11    1
    22    11    17    1
    23    17    18    3
    24    11    12    2
    25    12    13    1
    26    12    14    1
    27    14    15    1
    28    15    16    2
    29     4     5    1
    30     5     6    1
    31    29    30   ar
    32    30    31   ar
    33    31    21   ar
    34    30    24   ar
    35     6     1    1
    36    16     7    1
    37    15     9    1
@<TRIPOS>MOLECULE
*****
 33 37 0 0 0
SMALL
GASTEIGER

@<TRIPOS>ATOM
      1 N          59.6080   90.3540    6.1218 N.3     1  UNL1       -0.2710
      2 C          58.4782   91.1095    5.4873 C.3     1  UNL1        0.0728
      3 C          58.7342   91.9754    4.2896 C.3     1  UNL1        0.0298
      4 C          60.1200   92.0859    3.7264 C.3     1  UNL1        0.1147
      5 C          61.2499   91.3304    4.3610 C.3     1  UNL1        0.0298
      6 C          60.9939   90.4644    5.5587 C.3     1  UNL1        0.0728
      7 C          60.3761   92.9519    2.5287 C.2     1  UNL1        0.3507
      8 N          61.7128   93.2169    1.9018 N.2     1  UNL1       -0.0350
      9 C          61.5032   94.1337    0.7333 C.2     1  UNL1        0.2324
     10 C          62.4581   94.7328   -0.2563 C.2     1  UNL1        0.0598
     11 C          61.9466   95.6336   -1.3413 C.2     1  UNL1        0.0648
     12 C          60.4804   95.9351   -1.4367 C.2     1  UNL1       -0.0258
     13 C          59.9690   96.8358   -2.5217 C.3     1  UNL1        0.0275
     14 C          59.5255   95.3359   -0.4471 C.3     1  UNL1        0.1004
     15 C          60.0369   94.4352    0.6378 C.2     1  UNL1        0.2171
     16 N          59.3403   93.7048    1.7474 N.2     1  UNL1       -0.0389
     17 C          62.9015   96.2327   -2.3309 C.1     1  UNL1        0.0999
     18 N          63.8563   96.8319   -3.3204 N.1     1  UNL1       -0.1908
     19 C          59.3519   89.4880    7.3196 C.3     1  UNL1        0.0970
     20 C          60.1741   89.6640    8.5619 C.3     1  UNL1        0.1264
     21 C          62.9955   90.2002   12.0262 C.ar    1  UNL1        0.1593
     22 C          63.5477   89.0000   12.7364 C.ar    1  UNL1        0.1357
     23 N          63.1595   87.6210   12.2918 N.ar    1  UNL1       -0.2392
     24 C          62.2191   87.4422   11.1370 C.ar    1  UNL1        0.0975
     25 C          61.8309   86.0632   10.6924 C.ar    1  UNL1        0.0255
     26 C          60.8905   85.8845    9.5377 C.ar    1  UNL1        0.0623
     27 C          60.3381   87.0848    8.8274 C.ar    1  UNL1        0.2611
     28 O          59.3977   86.9060    7.6727 O.2     1  UNL1       -0.2670
     29 N          60.7263   88.4638    9.2720 N.ar    1  UNL1       -0.2926
     30 C          61.6668   88.6425   10.4269 C.ar    1  UNL1        0.0832
     31 C          62.0550   90.0215   10.8715 C.ar    1  UNL1        0.0573
     32 C          64.8324   91.9524   12.5788 C.3     1  UNL1        0.2525
     33 O          63.3836   91.5792   12.4708 O.3     1  UNL1       -0.4698
@<TRIPOS>BOND
     1    32    33    1
     2    33    21    1
     3    21    22   ar
     4    22    23   ar
     5    23    24   ar
     6    24    25   ar
     7    25    26   ar
     8    26    27   ar
     9    27    28    2
    10    27    29   ar
    11    29    20    1
    12    20    19    1
    13    19     1    1
    14     1     2    1
    15     2     3    1
    16     3     4    1
    17     4     7    1
    18     7     8    2
    19     8     9    1
    20     9    10    2
    21    10    11    1
    22    11    17    1
    23    17    18    3
    24    11    12    2
    25    12    13    1
    26    12    14    1
    27    14    15    1
    28    15    16    2
    29     4     5    1
    30     5     6    1
    31    29    30   ar
    32    30    31   ar
    33    31    21   ar
    34    30    24   ar
    35     6     1    1
    36    16     7    1
    37    15     9    1
@<TRIPOS>MOLECULE
*****
 33 37 0 0 0
SMALL
GASTEIGER

@<TRIPOS>ATOM
      1 N          63.9833   90.8456   13.4494 N.3     1  UNL1       -0.2710
      2 C          63.2128   90.3518   12.2609 C.3     1  UNL1        0.0728
      3 C          63.0196   88.8791   12.0514 C.3     1  UNL1        0.0298
      4 C          63.5968   87.9003   13.0305 C.3     1  UNL1        0.1147
      5 C          64.3673   88.3941   14.2190 C.3     1  UNL1        0.0298
      6 C          64.5605   89.8667   14.4284 C.3     1  UNL1        0.0728
      7 C          63.4036   86.4275   12.8211 C.2     1  UNL1        0.3507
      8 N          63.4788   85.7063   11.5080 N.2     1  UNL1       -0.0350
      9 C          63.2229   84.2505   11.7635 C.2     1  UNL1        0.2324
     10 C          63.1722   83.0644   10.8467 C.2     1  UNL1        0.0598
     11 C          62.8882   81.6997   11.4009 C.2     1  UNL1        0.0648
     12 C          62.6549   81.5213   12.8718 C.2     1  UNL1       -0.0258
     13 C          62.3709   80.1566   13.4259 C.3     1  UNL1        0.0275
     14 C          62.7056   82.7074   13.7886 C.3     1  UNL1        0.1004
     15 C          62.9896   84.0720   13.2345 C.2     1  UNL1        0.2171
     16 N          63.1012   85.4175   13.8881 N.2     1  UNL1       -0.0389
     17 C          62.8375   80.5136   10.4841 C.1     1  UNL1        0.0999
     18 N          62.7869   79.3274    9.5673 N.1     1  UNL1       -0.1908
     19 C          64.1765   92.3183   13.6588 C.3     1  UNL1        0.0970
     20 C          65.5481   92.8644   13.9246 C.3     1  UNL1        0.1264
     21 C          65.7453   95.0079    9.9728 C.ar    1  UNL1        0.1593
     22 C          66.8656   94.7191    9.0181 C.ar    1  UNL1        0.1357
     23 N          67.9201   93.7159    9.3806 N.ar    1  UNL1       -0.2392
     24 C          67.8544   93.0014   10.6978 C.ar    1  UNL1        0.0975
     25 C          68.9089   91.9981   11.0603 C.ar    1  UNL1        0.0255
     26 C          68.8432   91.2836   12.3775 C.ar    1  UNL1        0.0623
     27 C          67.7229   91.5724   13.3323 C.ar    1  UNL1        0.2611
     28 O          67.6571   90.8579   14.6496 O.2     1  UNL1       -0.2670
     29 N          66.6683   92.5757   12.9698 N.ar    1  UNL1       -0.2926
     30 C          66.7341   93.2902   11.6525 C.ar    1  UNL1        0.0832
     31 C          65.6796   94.2934   11.2900 C.ar    1  UNL1        0.0573
     32 C          64.8422   96.8444    8.3722 C.3     1  UNL1        0.2525
     33 O          64.6908   96.0112    9.6103 O.3     1  UNL1       -0.4698
@<TRIPOS>BOND
     1    32    33    1
     2    33    21    1
     3    21    22   ar
     4    22    23   ar
     5    23    24   ar
     6    24    25   ar
     7    25    26   ar
     8    26    27   ar
     9    27    28    2
    10    27    29   ar
    11    29    20    1
    12    20    19    1
    13    19     1    1
    14     1     2    1
    15     2     3    1
    16     3     4    1
    17     4     7    1
    18     7     8    2
    19     8     9    1
    20     9    10    2
    21    10    11    1
    22    11    17    1
    23    17    18    3
    24    11    12    2
    25    12    13    1
    26    12    14    1
    27    14    15    1
    28    15    16    2
    29     4     5    1
    30     5     6    1
    31    29    30   ar
    32    30    31   ar
    33    31    21   ar
    34    30    24   ar
    35     6     1    1
    36    16     7    1
    37    15     9    1
