@<TRIPOS>MOLECULE
*****
 36 39 0 0 0
SMALL
GASTEIGER

@<TRIPOS>ATOM
      1 C          63.7658   87.1970   15.4871 C.ar    1  UNL1        0.1493
      2 N          64.3162   88.2065   14.5238 N.ar    1  UNL1       -0.2378
      3 C          64.2237   89.6704   14.8371 C.ar    1  UNL1        0.1006
      4 C          63.5807   90.1249   16.1138 C.ar    1  UNL1        0.1193
      5 N          63.0303   89.1155   17.0771 N.ar    1  UNL1       -0.2264
      6 C          63.1228   87.6516   16.7638 C.ar    1  UNL1        0.1463
      7 N          62.5723   86.6422   17.7272 N.pl3   1  UNL1       -0.3413
      8 H          62.1503   86.9405   18.5651 H       1  UNL1        0.1438
      9 H          62.6331   85.6813   17.5215 H       1  UNL1        0.1438
     10 C          64.7742   90.6799   13.8737 C.ar    1  UNL1        0.0193
     11 C          64.0529   90.9617   12.5892 C.ar    1  UNL1        0.0029
     12 C          64.6034   91.9712   11.6258 C.ar    1  UNL1        0.0184
     13 C          65.8752   92.6987   11.9470 C.ar    1  UNL1        0.1056
     14 C          66.5965   92.4168   13.2316 C.ar    1  UNL1        0.0184
     15 C          66.0460   91.4074   14.1950 C.ar    1  UNL1        0.0029
     16 S          66.4257   93.7081   10.9836 S.O2    1  UNL1        0.0070
     17 O          66.1426   94.8029   11.9691 O.2     1  UNL1       -0.1687
     18 O          66.7088   92.6132    9.9982 O.2     1  UNL1       -0.1687
     19 C          66.9762   94.7175   10.0203 C.3     1  UNL1        0.1339
     20 C          67.8020   94.2666    8.8521 C.3     1  UNL1        0.0257
     21 C          66.7009   96.1777   10.2252 C.3     1  UNL1        0.0257
     22 C          63.7546   83.6136   13.9956 C.ar    1  UNL1        0.1231
     23 C          63.5145   85.0884   13.8637 C.ar    1  UNL1        0.0642
     24 C          63.8583   85.7331   15.1737 C.ar    1  UNL1        0.1971
     25 O          64.3110   84.6567   16.1153 O.2     1  UNL1       -0.3517
     26 N          64.2468   83.3469   15.3872 N.ar    1  UNL1       -0.0769
     27 C          63.1111   80.5309   10.7811 C.ar    1  UNL1       -0.0064
     28 C          62.7020   80.2377   12.1942 C.ar    1  UNL1       -0.0029
     29 C          62.9165   81.2653   13.2656 C.ar    1  UNL1        0.0013
     30 C          63.5401   82.5861   12.9241 C.ar    1  UNL1        0.0209
     31 C          63.9492   82.8793   11.5111 C.ar    1  UNL1        0.0013
     32 C          63.7347   81.8517   10.4396 C.ar    1  UNL1       -0.0029
     33 C          62.8966   79.5034    9.7096 C.3     1  UNL1        0.0957
     34 C          63.4435   76.9958   10.1131 C.3     1  UNL1        0.0861
     35 N          62.4502   78.1192   10.0765 N.3     1  UNL1       -0.2926
     36 H          62.0394   78.1795   11.0082 H       1  UNL1        0.1236
@<TRIPOS>BOND
     1    34    35    1
     2    35    33    1
     3    33    27    1
     4    27    28   ar
     5    28    29   ar
     6    29    30   ar
     7    30    22    1
     8    22    23   ar
     9    23    24   ar
    10    24     1    1
    11     1     2   ar
    12     2     3   ar
    13     3    10    1
    14    10    11   ar
    15    11    12   ar
    16    12    13   ar
    17    13    16    1
    18    16    17    2
    19    16    18    2
    20    16    19    1
    21    19    20    1
    22    19    21    1
    23    13    14   ar
    24    14    15   ar
    25     3     4   ar
    26     4     5   ar
    27     5     6   ar
    28     6     7    1
    29    24    25   ar
    30    25    26   ar
    31    30    31   ar
    32    31    32   ar
    33    32    27   ar
    34    26    22   ar
    35     6     1   ar
    36    15    10   ar
    37    35    36    1
    38     7     8    1
    39     7     9    1
@<TRIPOS>MOLECULE
*****
 36 39 0 0 0
SMALL
GASTEIGER

@<TRIPOS>ATOM
      1 C          60.1190   89.1010    7.9610 C.ar    1  UNL1        0.1493
      2 N          61.0722   89.6935    8.9561 N.ar    1  UNL1       -0.2378
      3 C          61.4746   88.9077   10.1688 C.ar    1  UNL1        0.1006
      4 C          60.9239   87.5297   10.3864 C.ar    1  UNL1        0.1193
      5 N          59.9706   86.9372    9.3912 N.ar    1  UNL1       -0.2264
      6 C          59.5682   87.7229    8.1785 C.ar    1  UNL1        0.1463
      7 N          58.6150   87.1304    7.1834 N.pl3   1  UNL1       -0.3413
      8 H          58.2535   86.2259    7.3262 H       1  UNL1        0.1438
      9 H          58.3509   87.6461    6.3874 H       1  UNL1        0.1438
     10 C          62.4279   89.5003   11.1640 C.ar    1  UNL1        0.0193
     11 C          62.8491   88.7054   12.3642 C.ar    1  UNL1        0.0029
     12 C          63.8024   89.2980   13.3594 C.ar    1  UNL1        0.0184
     13 C          64.3344   90.6853   13.1542 C.ar    1  UNL1        0.1056
     14 C          63.9131   91.4802   11.9539 C.ar    1  UNL1        0.0184
     15 C          62.9599   90.8877   10.9588 C.ar    1  UNL1        0.0029
     16 S          65.2876   91.2779   14.1493 S.O2    1  UNL1        0.0070
     17 O          66.1008   91.8531   13.0278 O.2     1  UNL1       -0.1687
     18 O          64.4744   90.7026   15.2708 O.2     1  UNL1       -0.1687
     19 C          66.2408   91.8704   15.1444 C.3     1  UNL1        0.1339
     20 C          65.7153   92.5409   16.3790 C.3     1  UNL1        0.0257
     21 C          67.7195   91.7924   14.9050 C.3     1  UNL1        0.0257
     22 C          59.8193   91.2304    4.7296 C.ar    1  UNL1        0.1231
     23 C          60.6482   90.5662    5.7888 C.ar    1  UNL1        0.0642
     24 C          59.7166   89.8867    6.7482 C.ar    1  UNL1        0.1971
     25 O          58.3120   90.1310    6.2820 O.2     1  UNL1       -0.3517
     26 N          58.3755   90.9614    5.0345 N.ar    1  UNL1       -0.0769
     27 C          61.3887   93.6117    1.2487 C.ar    1  UNL1       -0.0064
     28 C          62.3229   92.7621    2.0584 C.ar    1  UNL1       -0.0029
     29 C          61.7998   91.9684    3.2187 C.ar    1  UNL1        0.0013
     30 C          60.3425   92.0241    3.5693 C.ar    1  UNL1        0.0209
     31 C          59.4083   92.8737    2.7597 C.ar    1  UNL1        0.0013
     32 C          59.9314   93.6674    1.5994 C.ar    1  UNL1       -0.0029
     33 C          61.9119   94.4054    0.0885 C.3     1  UNL1        0.0957
     34 C          64.3615   94.7997   -0.6821 C.3     1  UNL1        0.0861
     35 N          63.1325   93.9404   -0.6489 N.3     1  UNL1       -0.2926
     36 H          63.4066   93.0504   -0.2328 H       1  UNL1        0.1236
@<TRIPOS>BOND
     1    34    35    1
     2    35    33    1
     3    33    27    1
     4    27    28   ar
     5    28    29   ar
     6    29    30   ar
     7    30    22    1
     8    22    23   ar
     9    23    24   ar
    10    24     1    1
    11     1     2   ar
    12     2     3   ar
    13     3    10    1
    14    10    11   ar
    15    11    12   ar
    16    12    13   ar
    17    13    16    1
    18    16    17    2
    19    16    18    2
    20    16    19    1
    21    19    20    1
    22    19    21    1
    23    13    14   ar
    24    14    15   ar
    25     3     4   ar
    26     4     5   ar
    27     5     6   ar
    28     6     7    1
    29    24    25   ar
    30    25    26   ar
    31    30    31   ar
    32    31    32   ar
    33    32    27   ar
    34    26    22   ar
    35     6     1   ar
    36    15    10   ar
    37    35    36    1
    38     7     8    1
    39     7     9    1
@<TRIPOS>MOLECULE
*****
 36 39 0 0 0
SMALL
GASTEIGER

@<TRIPOS>ATOM
      1 C          60.4823   89.0837    9.2178 C.ar    1  UNL1        0.1493
      2 N          60.5076   90.0370    8.0600 N.ar    1  UNL1       -0.2378
      3 C          59.8032   89.6851    6.7833 C.ar    1  UNL1        0.1006
      4 C          59.0736   88.3800    6.6643 C.ar    1  UNL1        0.1193
      5 N          59.0483   87.4267    7.8221 N.ar    1  UNL1       -0.2264
      6 C          59.7526   87.7785    9.0989 C.ar    1  UNL1        0.1463
      7 N          59.7273   86.8252   10.2567 N.pl3   1  UNL1       -0.3413
      8 H          59.2484   85.9686   10.1786 H       1  UNL1        0.1438
      9 H          60.1896   87.0561   11.0946 H       1  UNL1        0.1438
     10 C          59.8285   90.6386    5.6254 C.ar    1  UNL1        0.0193
     11 C          61.1183   90.9190    4.9129 C.ar    1  UNL1        0.0029
     12 C          61.1435   91.8724    3.7551 C.ar    1  UNL1        0.0184
     13 C          59.8791   92.5453    3.3099 C.ar    1  UNL1        0.1056
     14 C          58.5893   92.2647    4.0224 C.ar    1  UNL1        0.0184
     15 C          58.5640   91.3114    5.1802 C.ar    1  UNL1        0.0029
     16 S          59.9044   93.4986    2.1521 S.O2    1  UNL1        0.0070
     17 O          59.8295   92.3429    1.1988 O.2     1  UNL1       -0.1687
     18 O          59.9792   94.6543    3.1054 O.2     1  UNL1       -0.1687
     19 C          59.9296   94.4520    0.9943 C.3     1  UNL1        0.1339
     20 C          60.9776   95.5230    0.9275 C.3     1  UNL1        0.0257
     21 C          58.9069   94.3342   -0.0966 C.3     1  UNL1        0.0257
     22 C          62.8480   90.2493   12.0656 C.ar    1  UNL1        0.1231
     23 C          62.5350   90.0829   10.6081 C.ar    1  UNL1        0.0642
     24 C          61.1866   89.4356   10.4945 C.ar    1  UNL1        0.1971
     25 O          60.6663   89.2019   11.8819 O.2     1  UNL1       -0.3517
     26 N          61.6931   89.7048   12.8528 N.ar    1  UNL1       -0.0769
     27 C          66.5941   92.0636   13.7761 C.ar    1  UNL1       -0.0064
     28 C          65.8526   91.0100   14.5443 C.ar    1  UNL1       -0.0029
     29 C          64.6039   90.4053   13.9741 C.ar    1  UNL1        0.0013
     30 C          64.0967   90.8541   12.6357 C.ar    1  UNL1        0.0209
     31 C          64.8382   91.9076   11.8675 C.ar    1  UNL1        0.0013
     32 C          66.0869   92.5124   12.4377 C.ar    1  UNL1       -0.0029
     33 C          67.8428   92.6683   14.3462 C.3     1  UNL1        0.0957
     34 C          69.0107   94.1411   16.1398 C.3     1  UNL1        0.0861
     35 N          67.7777   93.4680   15.6135 N.3     1  UNL1       -0.2926
     36 H          67.0835   94.2003   15.4643 H       1  UNL1        0.1236
@<TRIPOS>BOND
     1    34    35    1
     2    35    33    1
     3    33    27    1
     4    27    28   ar
     5    28    29   ar
     6    29    30   ar
     7    30    22    1
     8    22    23   ar
     9    23    24   ar
    10    24     1    1
    11     1     2   ar
    12     2     3   ar
    13     3    10    1
    14    10    11   ar
    15    11    12   ar
    16    12    13   ar
    17    13    16    1
    18    16    17    2
    19    16    18    2
    20    16    19    1
    21    19    20    1
    22    19    21    1
    23    13    14   ar
    24    14    15   ar
    25     3     4   ar
    26     4     5   ar
    27     5     6   ar
    28     6     7    1
    29    24    25   ar
    30    25    26   ar
    31    30    31   ar
    32    31    32   ar
    33    32    27   ar
    34    26    22   ar
    35     6     1   ar
    36    15    10   ar
    37    35    36    1
    38     7     8    1
    39     7     9    1
