@<TRIPOS>MOLECULE
*****
 34 36 0 0 0
SMALL
GASTEIGER

@<TRIPOS>ATOM
      1 C          61.6565   88.0835    9.9133 C.3     1  UNL1        0.1812
      2 O          62.8465   87.9034   10.8085 O.3     1  UNL1       -0.3784
      3 H          63.1493   86.9831   10.7625 H       1  UNL1        0.2106
      4 C          60.4665   88.2636    9.0181 C.3     1  UNL1        0.4197
      5 F          59.2764   88.4437    8.1228 F       1  UNL1       -0.1676
      6 F          59.9415   89.3320    9.9308 F       1  UNL1       -0.1676
      7 F          60.9914   87.1953    8.1053 F       1  UNL1       -0.1676
      8 C          61.7324   86.6375    9.5214 C.3     1  UNL1        0.0399
      9 C          62.2144   85.6171   10.5095 C.3     1  UNL1        0.0244
     10 C          63.1868   85.0935    9.4944 C.3     1  UNL1        0.0046
     11 C          61.2419   86.1406   11.5245 C.3     1  UNL1        0.0046
     12 C          63.3195   85.0384   12.7884 C.ar    1  UNL1        0.1348
     13 C          63.8015   84.0179   13.7765 C.ar    1  UNL1        0.0389
     14 C          63.6603   82.5556   13.4737 C.ar    1  UNL1        0.0327
     15 C          63.0371   82.1137   12.1827 C.ar    1  UNL1        0.1400
     16 F          62.8960   80.6514   11.8799 F       1  UNL1       -0.2042
     17 C          62.5551   83.1342   11.1947 C.ar    1  UNL1        0.0283
     18 C          62.6964   84.5966   11.4975 C.ar    1  UNL1        0.0135
     19 C          64.1852   86.9440   14.3276 C.3     1  UNL1        0.2525
     20 O          63.4607   86.5007   13.0913 O.3     1  UNL1       -0.4717
     21 C          61.5805   89.5294   10.3051 C.3     1  UNL1        0.0811
     22 C          62.4420   90.0515   11.4165 C.2     1  UNL1        0.0613
     23 C          63.6431   90.9364   11.2598 C.2     1  UNL1        0.0161
     24 C          64.1971   91.2122   12.6262 C.2     1  UNL1        0.0195
     25 C          65.3725   92.0215   13.0881 C.2     1  UNL1        0.0388
     26 C          65.6893   92.1164   14.5512 C.2     1  UNL1        0.1823
     27 N          64.8306   91.4020   15.5524 N.2     1  UNL1       -0.2468
     28 C          63.6552   90.5927   15.0905 C.3     1  UNL1        0.1722
     29 C          63.3385   90.4977   13.6274 C.2     1  UNL1        0.0833
     30 N          62.2537   89.7804   12.8797 N.2     1  UNL1       -0.2519
     31 S          66.8647   92.9258   15.0132 S.O2    1  UNL1        0.0265
     32 C          68.0401   93.7351   15.4751 C.3     1  UNL1        0.1834
     33 O          66.4117   92.7723   16.4349 O.2     1  UNL1       -0.1671
     34 O          67.3177   93.0793   13.5915 O.2     1  UNL1       -0.1671
@<TRIPOS>BOND
     1    19    20    1
     2    20    12    1
     3    12    13   ar
     4    13    14   ar
     5    14    15   ar
     6    15    16    1
     7    15    17   ar
     8    17    18   ar
     9    18     9    1
    10     9    10    1
    11     9    11    1
    12     9     8    1
    13     8     1    1
    14     1     2    1
    15     1    21    1
    16    21    22    1
    17    22    23    2
    18    23    24    1
    19    24    25    2
    20    25    26    1
    21    26    31    1
    22    31    32    1
    23    31    33    2
    24    31    34    2
    25    26    27    2
    26    27    28    1
    27    28    29    1
    28    29    30    2
    29     1     4    1
    30     4     5    1
    31     4     6    1
    32     4     7    1
    33    18    12   ar
    34    30    22    1
    35    29    24    1
    36     2     3    1
@<TRIPOS>MOLECULE
*****
 34 36 0 0 0
SMALL
GASTEIGER

@<TRIPOS>ATOM
      1 C          63.4985   87.3490   16.2127 C.3     1  UNL1        0.1812
      2 O          63.9001   87.3675   14.7677 O.3     1  UNL1       -0.3784
      3 H          64.1430   86.4710   14.4881 H       1  UNL1        0.2106
      4 C          63.0968   87.3305   17.6578 C.3     1  UNL1        0.4197
      5 F          62.6951   87.3120   19.1029 F       1  UNL1       -0.1676
      6 F          63.0898   85.8306   17.6367 F       1  UNL1       -0.1676
      7 F          63.1037   88.8303   17.6789 F       1  UNL1       -0.1676
      8 C          63.7548   85.8719   16.2651 C.3     1  UNL1        0.0399
      9 C          63.5371   85.0292   15.0435 C.3     1  UNL1        0.0244
     10 C          64.9952   85.1377   14.7087 C.3     1  UNL1        0.0046
     11 C          62.0790   84.9206   15.3783 C.3     1  UNL1        0.0046
     12 C          63.0343   84.8388   12.5017 C.ar    1  UNL1        0.1348
     13 C          62.8165   83.9960   11.2801 C.ar    1  UNL1        0.0389
     14 C          62.8838   82.5008   11.3787 C.ar    1  UNL1        0.0327
     15 C          63.1689   81.8483   12.6990 C.ar    1  UNL1        0.1400
     16 F          63.2362   80.3531   12.7976 F       1  UNL1       -0.2042
     17 C          63.3867   82.6911   13.9206 C.ar    1  UNL1        0.0283
     18 C          63.3193   84.1864   13.8219 C.ar    1  UNL1        0.0135
     19 C          62.2633   86.9784   11.2456 C.3     1  UNL1        0.2525
     20 O          62.9670   86.3341   12.4030 O.3     1  UNL1       -0.4717
     21 C          63.2421   88.8260   16.1604 C.3     1  UNL1        0.0811
     22 C          63.5970   89.6056   14.9291 C.2     1  UNL1        0.0613
     23 C          64.8030   90.4807   14.7566 C.2     1  UNL1        0.0161
     24 C          64.7596   91.0629   13.3749 C.2     1  UNL1        0.0195
     25 C          65.6834   91.9957   12.6493 C.2     1  UNL1        0.0388
     26 C          65.3743   92.4133   11.2421 C.2     1  UNL1        0.1823
     27 N          64.1414   91.8980   10.5606 N.2     1  UNL1       -0.2468
     28 C          63.2176   90.9652   11.2862 C.3     1  UNL1        0.1722
     29 C          63.5267   90.5477   12.6933 C.2     1  UNL1        0.0833
     30 N          62.8081   89.6470   13.6539 N.2     1  UNL1       -0.2519
     31 S          66.2981   93.3461   10.5165 S.O2    1  UNL1        0.0265
     32 C          67.2219   94.2788    9.7909 C.3     1  UNL1        0.1834
     33 O          67.2552   92.2153   10.2814 O.2     1  UNL1       -0.1671
     34 O          65.3410   94.4768   10.7516 O.2     1  UNL1       -0.1671
@<TRIPOS>BOND
     1    19    20    1
     2    20    12    1
     3    12    13   ar
     4    13    14   ar
     5    14    15   ar
     6    15    16    1
     7    15    17   ar
     8    17    18   ar
     9    18     9    1
    10     9    10    1
    11     9    11    1
    12     9     8    1
    13     8     1    1
    14     1     2    1
    15     1    21    1
    16    21    22    1
    17    22    23    2
    18    23    24    1
    19    24    25    2
    20    25    26    1
    21    26    31    1
    22    31    32    1
    23    31    33    2
    24    31    34    2
    25    26    27    2
    26    27    28    1
    27    28    29    1
    28    29    30    2
    29     1     4    1
    30     4     5    1
    31     4     6    1
    32     4     7    1
    33    18    12   ar
    34    30    22    1
    35    29    24    1
    36     2     3    1
@<TRIPOS>MOLECULE
*****
 34 36 0 0 0
SMALL
GASTEIGER

@<TRIPOS>ATOM
      1 C          61.9801   86.7895   10.3988 C.3     1  UNL1        0.1812
      2 O          62.9556   86.8007   11.5382 O.3     1  UNL1       -0.3784
      3 H          63.5021   86.0001   11.5040 H       1  UNL1        0.2106
      4 C          61.0047   86.7782    9.2594 C.3     1  UNL1        0.4197
      5 F          60.0291   86.7669    8.1199 F       1  UNL1       -0.1676
      6 F          62.0764   86.2596    8.3469 F       1  UNL1       -0.1676
      7 F          59.9330   87.2967   10.1718 F       1  UNL1       -0.1676
      8 C          62.5316   85.4721    9.9397 C.3     1  UNL1        0.0399
      9 C          62.7874   84.3786   10.9341 C.3     1  UNL1        0.0244
     10 C          63.8671   83.8278   10.0506 C.3     1  UNL1        0.0046
     11 C          61.7076   84.9295   11.8177 C.3     1  UNL1        0.0046
     12 C          63.7074   83.6007   13.2359 C.ar    1  UNL1        0.1348
     13 C          63.9632   82.5072   14.2303 C.ar    1  UNL1        0.0389
     14 C          63.5548   81.0982   13.9174 C.ar    1  UNL1        0.0327
     15 C          62.8905   80.7827   12.6100 C.ar    1  UNL1        0.1400
     16 F          62.4821   79.3737   12.2971 F       1  UNL1       -0.2042
     17 C          62.6347   81.8762   11.6156 C.ar    1  UNL1        0.0283
     18 C          63.0432   83.2852   11.9286 C.ar    1  UNL1        0.0135
     19 C          64.5846   85.3658   14.9285 C.3     1  UNL1        0.2525
     20 O          64.1159   85.0097   13.5489 O.3     1  UNL1       -0.4717
     21 C          61.4287   88.1067   10.8578 C.3     1  UNL1        0.0811
     22 C          62.3598   89.2357   11.1871 C.2     1  UNL1        0.0613
     23 C          62.8709   90.2664   10.2244 C.2     1  UNL1        0.0161
     24 C          63.7703   91.1999   10.9792 C.2     1  UNL1        0.0195
     25 C          64.5542   92.4045   10.5498 C.2     1  UNL1        0.0388
     26 C          65.3830   93.1555   11.5495 C.2     1  UNL1        0.1823
     27 N          65.4277   92.7018   12.9785 N.2     1  UNL1       -0.2468
     28 C          64.6437   91.4973   13.4079 C.3     1  UNL1        0.1722
     29 C          63.8150   90.7463   12.4083 C.2     1  UNL1        0.0833
     30 N          62.9432   89.5323   12.5368 N.2     1  UNL1       -0.2519
     31 S          66.1669   94.3600   11.1201 S.O2    1  UNL1        0.0265
     32 C          66.9509   95.5646   10.6907 C.3     1  UNL1        0.1834
     33 O          66.1134   94.8942   12.5208 O.2     1  UNL1       -0.1671
     34 O          66.2205   93.8259    9.7195 O.2     1  UNL1       -0.1671
@<TRIPOS>BOND
     1    19    20    1
     2    20    12    1
     3    12    13   ar
     4    13    14   ar
     5    14    15   ar
     6    15    16    1
     7    15    17   ar
     8    17    18   ar
     9    18     9    1
    10     9    10    1
    11     9    11    1
    12     9     8    1
    13     8     1    1
    14     1     2    1
    15     1    21    1
    16    21    22    1
    17    22    23    2
    18    23    24    1
    19    24    25    2
    20    25    26    1
    21    26    31    1
    22    31    32    1
    23    31    33    2
    24    31    34    2
    25    26    27    2
    26    27    28    1
    27    28    29    1
    28    29    30    2
    29     1     4    1
    30     4     5    1
    31     4     6    1
    32     4     7    1
    33    18    12   ar
    34    30    22    1
    35    29    24    1
    36     2     3    1
@<TRIPOS>MOLECULE
*****
 34 36 0 0 0
SMALL
GASTEIGER

@<TRIPOS>ATOM
      1 C          63.6801   86.8646   15.8654 C.3     1  UNL1        0.1812
      2 O          64.2910   87.1189   14.5193 O.3     1  UNL1       -0.3784
      3 H          64.5725   86.2772   14.1278 H       1  UNL1        0.2106
      4 C          63.0692   86.6104   17.2115 C.3     1  UNL1        0.4197
      5 F          62.4584   86.3561   18.5578 F       1  UNL1       -0.1676
      6 F          62.2189   87.8365   17.0573 F       1  UNL1       -0.1676
      7 F          63.9195   85.3844   17.3658 F       1  UNL1       -0.1676
      8 C          63.9259   85.3942   15.6992 C.3     1  UNL1        0.0399
      9 C          63.7682   84.7551   14.3514 C.3     1  UNL1        0.0244
     10 C          62.2766   84.8084   14.5006 C.3     1  UNL1        0.0046
     11 C          65.2598   84.7018   14.2022 C.3     1  UNL1        0.0046
     12 C          63.6484   82.6222   12.8728 C.ar    1  UNL1        0.1348
     13 C          63.4907   81.9831   11.5250 C.ar    1  UNL1        0.0389
     14 C          63.2953   82.8377   10.3079 C.ar    1  UNL1        0.0327
     15 C          63.2575   84.3316   10.4386 C.ar    1  UNL1        0.1400
     16 F          63.0621   85.1862    9.2215 F       1  UNL1       -0.2042
     17 C          63.4152   84.9707   11.7864 C.ar    1  UNL1        0.0283
     18 C          63.6106   84.1160   13.0036 C.ar    1  UNL1        0.0135
     19 C          62.9316   80.6040   14.3437 C.3     1  UNL1        0.2525
     20 O          63.8438   81.7674   14.0899 O.3     1  UNL1       -0.4717
     21 C          63.4344   88.3350   16.0316 C.3     1  UNL1        0.0811
     22 C          63.7649   89.2814   14.9158 C.2     1  UNL1        0.0613
     23 C          64.8052   90.3615   14.9548 C.2     1  UNL1        0.0161
     24 C          64.7965   91.0616   13.6283 C.2     1  UNL1        0.0195
     25 C          65.6056   92.2049   13.0914 C.2     1  UNL1        0.0388
     26 C          65.3690   92.7009   11.6956 C.2     1  UNL1        0.1823
     27 N          64.3234   92.0535   10.8368 N.2     1  UNL1       -0.2468
     28 C          63.5144   90.9102   11.3736 C.3     1  UNL1        0.1722
     29 C          63.7509   90.4142   12.7693 C.2     1  UNL1        0.0833
     30 N          63.1133   89.3140   13.5651 N.2     1  UNL1       -0.2519
     31 S          66.1781   93.8442   11.1588 S.O2    1  UNL1        0.0265
     32 C          66.9872   94.9875   10.6219 C.3     1  UNL1        0.1834
     33 O          66.1599   94.4922   12.5115 O.2     1  UNL1       -0.1671
     34 O          66.1963   93.1962    9.8061 O.2     1  UNL1       -0.1671
@<TRIPOS>BOND
     1    19    20    1
     2    20    12    1
     3    12    13   ar
     4    13    14   ar
     5    14    15   ar
     6    15    16    1
     7    15    17   ar
     8    17    18   ar
     9    18     9    1
    10     9    10    1
    11     9    11    1
    12     9     8    1
    13     8     1    1
    14     1     2    1
    15     1    21    1
    16    21    22    1
    17    22    23    2
    18    23    24    1
    19    24    25    2
    20    25    26    1
    21    26    31    1
    22    31    32    1
    23    31    33    2
    24    31    34    2
    25    26    27    2
    26    27    28    1
    27    28    29    1
    28    29    30    2
    29     1     4    1
    30     4     5    1
    31     4     6    1
    32     4     7    1
    33    18    12   ar
    34    30    22    1
    35    29    24    1
    36     2     3    1
@<TRIPOS>MOLECULE
*****
 34 36 0 0 0
SMALL
GASTEIGER

@<TRIPOS>ATOM
      1 C          61.5201   87.5145    9.8367 C.3     1  UNL1        0.1812
      2 O          62.8439   87.6682   10.5250 O.3     1  UNL1       -0.3784
      3 H          63.2299   86.7924   10.6828 H       1  UNL1        0.2106
      4 C          60.1963   87.3609    9.1483 C.3     1  UNL1        0.4197
      5 F          58.8724   87.2072    8.4599 F       1  UNL1       -0.1676
      6 F          60.8305   86.4608    8.1295 F       1  UNL1       -0.1676
      7 F          59.5621   88.2609   10.1669 F       1  UNL1       -0.1676
      8 C          61.6851   86.0237    9.8520 C.3     1  UNL1        0.0399
      9 C          62.3458   85.3543   11.0205 C.3     1  UNL1        0.0244
     10 C          63.3064   84.6763   10.0890 C.3     1  UNL1        0.0046
     11 C          61.3853   86.0322   11.9521 C.3     1  UNL1        0.0046
     12 C          63.0606   83.1877   12.2635 C.ar    1  UNL1        0.1348
     13 C          63.7213   82.5183   13.4320 C.ar    1  UNL1        0.0389
     14 C          64.3281   83.3460   14.5259 C.ar    1  UNL1        0.0327
     15 C          64.2741   84.8432   14.4514 C.ar    1  UNL1        0.1400
     16 F          64.8808   85.6710   15.5453 F       1  UNL1       -0.2042
     17 C          63.6133   85.5127   13.2829 C.ar    1  UNL1        0.0283
     18 C          63.0066   84.6848   12.1890 C.ar    1  UNL1        0.0135
     19 C          63.1057   81.0752   10.7518 C.3     1  UNL1        0.2525
     20 O          62.4538   82.3599   11.1696 O.3     1  UNL1       -0.4717
     21 C          61.3551   89.0053    9.8213 C.3     1  UNL1        0.0811
     22 C          62.3806   89.8802   10.4791 C.2     1  UNL1        0.0613
     23 C          62.8004   89.8179   11.9179 C.2     1  UNL1        0.0161
     24 C          63.8457   90.8702   12.1418 C.2     1  UNL1        0.0195
     25 C          64.6207   91.2716   13.3617 C.2     1  UNL1        0.0388
     26 C          65.6220   92.3856   13.2813 C.2     1  UNL1        0.1823
     27 N          65.8481   93.0983   11.9809 N.2     1  UNL1       -0.2468
     28 C          65.0731   92.6969   10.7610 C.3     1  UNL1        0.1722
     29 C          64.0719   91.5829   10.8414 C.2     1  UNL1        0.0833
     30 N          63.1664   90.9710    9.8138 N.2     1  UNL1       -0.2519
     31 S          66.3970   92.7870   14.5012 S.O2    1  UNL1        0.0265
     32 C          67.1720   93.1884   15.7211 C.3     1  UNL1        0.1834
     33 O          67.5836   93.1081   13.6417 O.2     1  UNL1       -0.1671
     34 O          65.2104   92.4659   15.3607 O.2     1  UNL1       -0.1671
@<TRIPOS>BOND
     1    19    20    1
     2    20    12    1
     3    12    13   ar
     4    13    14   ar
     5    14    15   ar
     6    15    16    1
     7    15    17   ar
     8    17    18   ar
     9    18     9    1
    10     9    10    1
    11     9    11    1
    12     9     8    1
    13     8     1    1
    14     1     2    1
    15     1    21    1
    16    21    22    1
    17    22    23    2
    18    23    24    1
    19    24    25    2
    20    25    26    1
    21    26    31    1
    22    31    32    1
    23    31    33    2
    24    31    34    2
    25    26    27    2
    26    27    28    1
    27    28    29    1
    28    29    30    2
    29     1     4    1
    30     4     5    1
    31     4     6    1
    32     4     7    1
    33    18    12   ar
    34    30    22    1
    35    29    24    1
    36     2     3    1
@<TRIPOS>MOLECULE
*****
 34 36 0 0 0
SMALL
GASTEIGER

@<TRIPOS>ATOM
      1 C          61.6220   86.9059    9.9269 C.3     1  UNL1        0.1812
      2 O          62.7090   87.2452   10.9033 O.3     1  UNL1       -0.3784
      3 H          63.1846   86.4371   11.1512 H       1  UNL1        0.2106
      4 C          60.5351   86.5667    8.9505 C.3     1  UNL1        0.4197
      5 F          59.4480   86.2274    7.9741 F       1  UNL1       -0.1676
      6 F          61.5046   85.7408    8.1580 F       1  UNL1       -0.1676
      7 F          59.5655   87.3925    9.7428 F       1  UNL1       -0.1676
      8 C          62.0179   85.4604    9.9884 C.3     1  UNL1        0.0399
      9 C          62.5697   84.8874   11.2601 C.3     1  UNL1        0.0244
     10 C          63.6418   84.1868   10.4792 C.3     1  UNL1        0.0046
     11 C          61.4976   85.5879   12.0409 C.3     1  UNL1        0.0046
     12 C          62.9980   82.8452   12.8080 C.ar    1  UNL1        0.1348
     13 C          63.5498   82.2722   14.0797 C.ar    1  UNL1        0.0389
     14 C          64.2250   83.1683   15.0751 C.ar    1  UNL1        0.0327
     15 C          64.3485   84.6375   14.7989 C.ar    1  UNL1        0.1400
     16 F          65.0238   85.5336   15.7944 F       1  UNL1       -0.2042
     17 C          63.7967   85.2105   13.5272 C.ar    1  UNL1        0.0283
     18 C          63.1215   84.3143   12.5317 C.ar    1  UNL1        0.0135
     19 C          62.9859   80.6753   11.3791 C.3     1  UNL1        0.2525
     20 O          62.3227   81.9490   11.8125 O.3     1  UNL1       -0.4717
     21 C          61.2261   88.3514    9.8653 C.3     1  UNL1        0.0811
     22 C          62.1468   89.4048   10.4062 C.2     1  UNL1        0.0613
     23 C          62.7692   90.5202    9.6196 C.2     1  UNL1        0.0161
     24 C          63.6138   91.3326   10.5558 C.2     1  UNL1        0.0195
     25 C          64.4614   92.5515   10.3416 C.2     1  UNL1        0.0388
     26 C          65.2086   93.1573   11.4926 C.2     1  UNL1        0.1823
     27 N          65.1082   92.5440   12.8578 N.2     1  UNL1       -0.2468
     28 C          64.2607   91.3251   13.0721 C.3     1  UNL1        0.1722
     29 C          63.5135   90.7194   11.9211 C.2     1  UNL1        0.0833
     30 N          62.6068   89.5280   11.8286 N.2     1  UNL1       -0.2519
     31 S          66.0561   94.3762   11.2784 S.O2    1  UNL1        0.0265
     32 C          66.9037   95.5951   11.0642 C.3     1  UNL1        0.1834
     33 O          66.1323   94.5840   12.7620 O.2     1  UNL1       -0.1671
     34 O          65.9799   94.1684    9.7948 O.2     1  UNL1       -0.1671
@<TRIPOS>BOND
     1    19    20    1
     2    20    12    1
     3    12    13   ar
     4    13    14   ar
     5    14    15   ar
     6    15    16    1
     7    15    17   ar
     8    17    18   ar
     9    18     9    1
    10     9    10    1
    11     9    11    1
    12     9     8    1
    13     8     1    1
    14     1     2    1
    15     1    21    1
    16    21    22    1
    17    22    23    2
    18    23    24    1
    19    24    25    2
    20    25    26    1
    21    26    31    1
    22    31    32    1
    23    31    33    2
    24    31    34    2
    25    26    27    2
    26    27    28    1
    27    28    29    1
    28    29    30    2
    29     1     4    1
    30     4     5    1
    31     4     6    1
    32     4     7    1
    33    18    12   ar
    34    30    22    1
    35    29    24    1
    36     2     3    1
@<TRIPOS>MOLECULE
*****
 34 36 0 0 0
SMALL
GASTEIGER

@<TRIPOS>ATOM
      1 C          63.0677   89.8665   12.4713 C.3     1  UNL1        0.1812
      2 O          62.2581   88.6102   12.3446 O.3     1  UNL1       -0.3784
      3 H          61.4810   88.7809   11.7897 H       1  UNL1        0.2106
      4 C          63.8772   91.1229   12.5981 C.3     1  UNL1        0.4197
      5 F          64.6869   92.3793   12.7248 F       1  UNL1       -0.1676
      6 F          63.5488   91.1871   14.0603 F       1  UNL1       -0.1676
      7 F          64.2057   91.0588   11.1359 F       1  UNL1       -0.1676
      8 C          62.0793   90.5908   11.6060 C.3     1  UNL1        0.0399
      9 C          61.3296   89.8477   10.5403 C.3     1  UNL1        0.0244
     10 C          60.0311   90.2346   11.1840 C.3     1  UNL1        0.0046
     11 C          62.6280   89.4609    9.8966 C.3     1  UNL1        0.0046
     12 C          60.3128   87.6369    9.6302 C.ar    1  UNL1        0.1348
     13 C          59.5631   86.8939    8.5644 C.ar    1  UNL1        0.0389
     14 C          59.0804   87.6186    7.3431 C.ar    1  UNL1        0.0327
     15 C          59.3475   89.0864    7.1874 C.ar    1  UNL1        0.1400
     16 F          58.8648   89.8112    5.9660 F       1  UNL1       -0.2042
     17 C          60.0972   89.8295    8.2531 C.ar    1  UNL1        0.0283
     18 C          60.5799   89.1047    9.4746 C.ar    1  UNL1        0.0135
     19 C          61.4477   85.5680   10.7173 C.3     1  UNL1        0.2525
     20 O          60.7955   86.9121   10.8516 O.3     1  UNL1       -0.4717
     21 C          64.0560   89.1424   13.3365 C.3     1  UNL1        0.0811
     22 C          63.8260   87.7044   13.6959 C.2     1  UNL1        0.0613
     23 C          63.6333   86.5738   12.7290 C.2     1  UNL1        0.0161
     24 C          63.4364   85.3151   13.5207 C.2     1  UNL1        0.0195
     25 C          63.2016   83.8935   13.1038 C.2     1  UNL1        0.0388
     26 C          63.0379   82.8244   14.1431 C.2     1  UNL1        0.1823
     27 N          63.1089   83.1769   15.5994 N.2     1  UNL1       -0.2468
     28 C          63.3437   84.5985   16.0163 C.3     1  UNL1        0.1722
     29 C          63.5074   85.6676   14.9770 C.2     1  UNL1        0.0833
     30 N          63.7482   87.1443   15.0853 N.2     1  UNL1       -0.2519
     31 S          62.8032   81.4027   13.7262 S.O2    1  UNL1        0.0265
     32 C          62.5684   79.9811   13.3093 C.3     1  UNL1        0.1834
     33 O          64.1277   81.3904   13.0224 O.2     1  UNL1       -0.1671
     34 O          61.4786   81.4150   14.4301 O.2     1  UNL1       -0.1671
@<TRIPOS>BOND
     1    19    20    1
     2    20    12    1
     3    12    13   ar
     4    13    14   ar
     5    14    15   ar
     6    15    16    1
     7    15    17   ar
     8    17    18   ar
     9    18     9    1
    10     9    10    1
    11     9    11    1
    12     9     8    1
    13     8     1    1
    14     1     2    1
    15     1    21    1
    16    21    22    1
    17    22    23    2
    18    23    24    1
    19    24    25    2
    20    25    26    1
    21    26    31    1
    22    31    32    1
    23    31    33    2
    24    31    34    2
    25    26    27    2
    26    27    28    1
    27    28    29    1
    28    29    30    2
    29     1     4    1
    30     4     5    1
    31     4     6    1
    32     4     7    1
    33    18    12   ar
    34    30    22    1
    35    29    24    1
    36     2     3    1
@<TRIPOS>MOLECULE
*****
 34 36 0 0 0
SMALL
GASTEIGER

@<TRIPOS>ATOM
      1 C          62.3049   89.4361   11.3687 C.3     1  UNL1        0.1812
      2 O          63.5376   88.9291   12.0565 O.3     1  UNL1       -0.3784
      3 H          63.8701   89.6070   12.6654 H       1  UNL1        0.2106
      4 C          61.0722   89.9432   10.6808 C.3     1  UNL1        0.4197
      5 F          59.8394   90.4502    9.9929 F       1  UNL1       -0.1676
      6 F          60.3845   90.0717   12.0078 F       1  UNL1       -0.1676
      7 F          61.7597   89.8147    9.3539 F       1  UNL1       -0.1676
      8 C          62.4144   90.7274   12.1242 C.3     1  UNL1        0.0399
      9 C          63.7589   91.2292   12.5607 C.3     1  UNL1        0.0244
     10 C          63.4175   90.9050   13.9849 C.3     1  UNL1        0.0046
     11 C          64.1003   91.5534   11.1365 C.3     1  UNL1        0.0046
     12 C          65.7438   92.8816   12.2789 C.ar    1  UNL1        0.1348
     13 C          67.0883   93.3835   12.7154 C.ar    1  UNL1        0.0389
     14 C          67.7923   92.7347   13.8702 C.ar    1  UNL1        0.0327
     15 C          67.1518   91.5841   14.5885 C.ar    1  UNL1        0.1400
     16 F          67.8558   90.9353   15.7432 F       1  UNL1       -0.2042
     17 C          65.8074   91.0822   14.1520 C.ar    1  UNL1        0.0283
     18 C          65.1034   91.7311   12.9972 C.ar    1  UNL1        0.0135
     19 C          65.5664   94.8117   10.5488 C.3     1  UNL1        0.2525
     20 O          65.0398   93.5304   11.1241 O.3     1  UNL1       -0.4717
     21 C          62.1954   88.1449   10.6132 C.3     1  UNL1        0.0811
     22 C          62.4298   86.8416   11.3177 C.2     1  UNL1        0.0613
     23 C          62.0527   85.4827   10.8064 C.2     1  UNL1        0.0161
     24 C          62.4723   84.4695   11.8299 C.2     1  UNL1        0.0195
     25 C          62.3571   82.9744   11.8681 C.2     1  UNL1        0.0388
     26 C          62.8783   82.2121   13.0502 C.2     1  UNL1        0.1823
     27 N          63.5146   82.9447   14.1939 N.2     1  UNL1       -0.2468
     28 C          63.6298   84.4398   14.1557 C.3     1  UNL1        0.1722
     29 C          63.1086   85.2022   12.9737 C.2     1  UNL1        0.0833
     30 N          63.0823   86.6683   12.6571 N.2     1  UNL1       -0.2519
     31 S          62.7631   80.7170   13.0884 S.O2    1  UNL1        0.0265
     32 C          62.6479   79.2219   13.1266 C.3     1  UNL1        0.1834
     33 O          62.6230   80.7659   14.5811 O.2     1  UNL1       -0.1671
     34 O          62.9032   80.6680   11.5958 O.2     1  UNL1       -0.1671
@<TRIPOS>BOND
     1    19    20    1
     2    20    12    1
     3    12    13   ar
     4    13    14   ar
     5    14    15   ar
     6    15    16    1
     7    15    17   ar
     8    17    18   ar
     9    18     9    1
    10     9    10    1
    11     9    11    1
    12     9     8    1
    13     8     1    1
    14     1     2    1
    15     1    21    1
    16    21    22    1
    17    22    23    2
    18    23    24    1
    19    24    25    2
    20    25    26    1
    21    26    31    1
    22    31    32    1
    23    31    33    2
    24    31    34    2
    25    26    27    2
    26    27    28    1
    27    28    29    1
    28    29    30    2
    29     1     4    1
    30     4     5    1
    31     4     6    1
    32     4     7    1
    33    18    12   ar
    34    30    22    1
    35    29    24    1
    36     2     3    1
@<TRIPOS>MOLECULE
*****
 34 36 0 0 0
SMALL
GASTEIGER

@<TRIPOS>ATOM
      1 C          61.9127   89.0326   10.0994 C.3     1  UNL1        0.1812
      2 O          63.1332   88.6845   10.8988 O.3     1  UNL1       -0.3784
      3 H          63.4298   89.4651   11.3925 H       1  UNL1        0.2106
      4 C          60.6922   89.3806    9.2999 C.3     1  UNL1        0.4197
      5 F          59.4716   89.7286    8.5004 F       1  UNL1       -0.1676
      6 F          60.4483   90.5649   10.1877 F       1  UNL1       -0.1676
      7 F          60.9360   88.1964    8.4122 F       1  UNL1       -0.1676
      8 C          61.9676   90.4359   10.6264 C.3     1  UNL1        0.0399
      9 C          63.0588   90.8393   11.5732 C.3     1  UNL1        0.0244
     10 C          63.8517   91.3896   10.4250 C.3     1  UNL1        0.0046
     11 C          62.2659   90.2890   12.7215 C.3     1  UNL1        0.0046
     12 C          64.5040   90.3569   13.6777 C.ar    1  UNL1        0.1348
     13 C          65.5952   90.7603   14.6245 C.ar    1  UNL1        0.0389
     14 C          66.3325   92.0494   14.4138 C.ar    1  UNL1        0.0327
     15 C          65.9786   92.9352   13.2561 C.ar    1  UNL1        0.1400
     16 F          66.7160   94.2244   13.0453 F       1  UNL1       -0.2042
     17 C          64.8874   92.5319   12.3092 C.ar    1  UNL1        0.0283
     18 C          64.1501   91.2427   12.5201 C.ar    1  UNL1        0.0135
     19 C          64.3918   87.9697   14.6968 C.3     1  UNL1        0.2525
     20 O          63.7666   89.0677   13.8885 O.3     1  UNL1       -0.4717
     21 C          61.8577   87.6293    9.5724 C.3     1  UNL1        0.0811
     22 C          62.0734   86.4707   10.5003 C.2     1  UNL1        0.0613
     23 C          62.0518   85.0200   10.1193 C.2     1  UNL1        0.0161
     24 C          62.3136   84.2121   11.3557 C.2     1  UNL1        0.0195
     25 C          62.4086   82.7330   11.5867 C.2     1  UNL1        0.0388
     26 C          62.6872   82.2053   12.9630 C.2     1  UNL1        0.1823
     27 N          62.8707   83.1566   14.1081 N.2     1  UNL1       -0.2468
     28 C          62.7757   84.6356   13.8770 C.3     1  UNL1        0.1722
     29 C          62.4971   85.1634   12.5009 C.2     1  UNL1        0.0833
     30 N          62.3487   86.5593   11.9722 N.2     1  UNL1       -0.2519
     31 S          62.7822   80.7262   13.1940 S.O2    1  UNL1        0.0265
     32 C          62.8773   79.2472   13.4251 C.3     1  UNL1        0.1834
     33 O          62.8404   80.4985   11.7126 O.2     1  UNL1       -0.1671
     34 O          62.7241   80.9539   14.6755 O.2     1  UNL1       -0.1671
@<TRIPOS>BOND
     1    19    20    1
     2    20    12    1
     3    12    13   ar
     4    13    14   ar
     5    14    15   ar
     6    15    16    1
     7    15    17   ar
     8    17    18   ar
     9    18     9    1
    10     9    10    1
    11     9    11    1
    12     9     8    1
    13     8     1    1
    14     1     2    1
    15     1    21    1
    16    21    22    1
    17    22    23    2
    18    23    24    1
    19    24    25    2
    20    25    26    1
    21    26    31    1
    22    31    32    1
    23    31    33    2
    24    31    34    2
    25    26    27    2
    26    27    28    1
    27    28    29    1
    28    29    30    2
    29     1     4    1
    30     4     5    1
    31     4     6    1
    32     4     7    1
    33    18    12   ar
    34    30    22    1
    35    29    24    1
    36     2     3    1
