@<TRIPOS>MOLECULE
*****
 28 31 0 0 0
SMALL
GASTEIGER

@<TRIPOS>ATOM
      1 O          61.9607   84.3636   11.8892 O.2     1  UNL1       -0.2651
      2 C          62.5612   85.6879   12.2578 C.ar    1  UNL1        0.2821
      3 N          63.3975   85.8135   13.4966 N.ar    1  UNL1       -0.1855
      4 C          63.9979   87.1377   13.8652 C.ar    1  UNL1        0.2029
      5 N          63.7620   88.3365   12.9948 N.ar    1  UNL1       -0.2088
      6 N          64.3624   89.6607   13.3634 N.ar    1  UNL1       -0.1571
      7 C          64.1266   90.8594   12.4930 C.ar    1  UNL1        0.1309
      8 C          63.2903   90.7338   11.2541 C.ar    1  UNL1        0.0291
      9 C          62.6898   89.4096   10.8856 C.ar    1  UNL1        0.0215
     10 C          62.9257   88.2109   11.7559 C.ar    1  UNL1        0.0893
     11 C          62.3253   86.8866   11.3874 C.ar    1  UNL1        0.0772
     12 C          61.4890   86.7610   10.1485 C.ar    1  UNL1        0.0273
     13 C          62.0040   85.9871    8.9713 C.ar    1  UNL1        0.0587
     14 CL         63.3552   85.3388    9.0329 Cl      1  UNL1       -0.0822
     15 C          61.1677   85.8615    7.7324 C.ar    1  UNL1        0.0114
     16 C          59.8164   86.5099    7.6708 C.ar    1  UNL1        0.0017
     17 C          59.3015   87.2838    8.8480 C.ar    1  UNL1        0.0114
     18 C          60.1378   87.4093   10.0869 C.ar    1  UNL1        0.0587
     19 CL         59.6228   88.1833   11.2641 Cl      1  UNL1       -0.0822
     20 S          64.7270   92.1837   12.8615 S.3     1  UNL1       -0.0641
     21 C          65.8855   92.2433   13.8125 C.ar    1  UNL1        0.0585
     22 C          65.6423   92.4396   15.2796 C.ar    1  UNL1        0.0111
     23 C          66.8008   92.4992   16.2305 C.ar    1  UNL1        0.0303
     24 C          68.2026   92.3625   15.7143 C.ar    1  UNL1        0.1424
     25 F          69.3611   92.4221   16.6652 F       1  UNL1       -0.2041
     26 C          68.4458   92.1663   14.2473 C.ar    1  UNL1        0.0598
     27 C          67.2872   92.1067   13.2963 C.ar    1  UNL1        0.1483
     28 F          67.5305   91.9104   11.8292 F       1  UNL1       -0.2036
@<TRIPOS>BOND
     1     1     2    2
     2     2     3   ar
     3     3     4   ar
     4     4     5   ar
     5     5     6   ar
     6     6     7   ar
     7     7    20    1
     8    20    21    1
     9    21    22   ar
    10    22    23   ar
    11    23    24   ar
    12    24    25    1
    13    24    26   ar
    14    26    27   ar
    15    27    28    1
    16     7     8   ar
    17     8     9   ar
    18     9    10   ar
    19    10    11   ar
    20    11    12    1
    21    12    13   ar
    22    13    14    1
    23    13    15   ar
    24    15    16   ar
    25    16    17   ar
    26    17    18   ar
    27    18    19    1
    28    11     2   ar
    29    18    12   ar
    30    10     5   ar
    31    27    21   ar
@<TRIPOS>MOLECULE
*****
 28 31 0 0 0
SMALL
GASTEIGER

@<TRIPOS>ATOM
      1 O          61.9586   84.3611   11.8884 O.2     1  UNL1       -0.2651
      2 C          62.5591   85.6852   12.2577 C.ar    1  UNL1        0.2821
      3 N          63.3933   85.8106   13.4980 N.ar    1  UNL1       -0.1855
      4 C          63.9937   87.1346   13.8673 C.ar    1  UNL1        0.2029
      5 N          63.7600   88.3333   12.9963 N.ar    1  UNL1       -0.2088
      6 N          64.3605   89.6573   13.3656 N.ar    1  UNL1       -0.1571
      7 C          64.1267   90.8559   12.4946 C.ar    1  UNL1        0.1309
      8 C          63.2925   90.7305   11.2543 C.ar    1  UNL1        0.0291
      9 C          62.6920   89.4065   10.8850 C.ar    1  UNL1        0.0215
     10 C          62.9258   88.2079   11.7560 C.ar    1  UNL1        0.0893
     11 C          62.3253   86.8838   11.3867 C.ar    1  UNL1        0.0772
     12 C          61.4911   86.7584   10.1464 C.ar    1  UNL1        0.0273
     13 C          60.1400   87.4070   10.0825 C.ar    1  UNL1        0.0587
     14 CL         59.6232   88.1810   11.2588 Cl      1  UNL1       -0.0822
     15 C          59.3058   87.2816    8.8422 C.ar    1  UNL1        0.0114
     16 C          59.8227   86.5076    7.6657 C.ar    1  UNL1        0.0017
     17 C          61.1737   85.8591    7.7297 C.ar    1  UNL1        0.0114
     18 C          62.0079   85.9845    8.9700 C.ar    1  UNL1        0.0587
     19 CL         63.3589   85.3359    9.0339 Cl      1  UNL1       -0.0822
     20 S          64.7272   92.1800   12.8639 S.3     1  UNL1       -0.0641
     21 C          65.8867   92.2389   13.8136 C.ar    1  UNL1        0.0585
     22 C          65.6450   92.4351   15.2810 C.ar    1  UNL1        0.0111
     23 C          66.8046   92.4940   16.2308 C.ar    1  UNL1        0.0303
     24 C          68.2058   92.3567   15.7131 C.ar    1  UNL1        0.1424
     25 F          69.3653   92.4156   16.6629 F       1  UNL1       -0.2041
     26 C          68.4474   92.1605   14.2458 C.ar    1  UNL1        0.0598
     27 C          67.2878   92.1016   13.2961 C.ar    1  UNL1        0.1483
     28 F          67.5295   91.9054   11.8287 F       1  UNL1       -0.2036
@<TRIPOS>BOND
     1     1     2    2
     2     2     3   ar
     3     3     4   ar
     4     4     5   ar
     5     5     6   ar
     6     6     7   ar
     7     7    20    1
     8    20    21    1
     9    21    22   ar
    10    22    23   ar
    11    23    24   ar
    12    24    25    1
    13    24    26   ar
    14    26    27   ar
    15    27    28    1
    16     7     8   ar
    17     8     9   ar
    18     9    10   ar
    19    10    11   ar
    20    11    12    1
    21    12    13   ar
    22    13    14    1
    23    13    15   ar
    24    15    16   ar
    25    16    17   ar
    26    17    18   ar
    27    18    19    1
    28    11     2   ar
    29    18    12   ar
    30    10     5   ar
    31    27    21   ar
@<TRIPOS>MOLECULE
*****
 28 31 0 0 0
SMALL
GASTEIGER

@<TRIPOS>ATOM
      1 O          63.1600   92.0115   11.8491 O.2     1  UNL1       -0.2651
      2 C          63.1805   90.5316   12.0933 C.ar    1  UNL1        0.2821
      3 N          62.4864   89.6045   11.1401 N.ar    1  UNL1       -0.1855
      4 C          62.5069   88.1247   11.3843 C.ar    1  UNL1        0.2029
      5 N          63.2216   87.5719   12.5817 N.ar    1  UNL1       -0.2088
      6 N          63.2421   86.0921   12.8259 N.ar    1  UNL1       -0.1571
      7 C          63.9566   85.5394   14.0233 C.ar    1  UNL1        0.1309
      8 C          64.6507   86.4666   14.9766 C.ar    1  UNL1        0.0291
      9 C          64.6302   87.9464   14.7324 C.ar    1  UNL1        0.0215
     10 C          63.9156   88.4991   13.5350 C.ar    1  UNL1        0.0893
     11 C          63.8951   89.9790   13.2908 C.ar    1  UNL1        0.0772
     12 C          64.5892   90.9061   14.2440 C.ar    1  UNL1        0.0273
     13 C          64.0808   91.0573   15.6472 C.ar    1  UNL1        0.0587
     14 CL         62.8785   90.2815   16.0970 Cl      1  UNL1       -0.0822
     15 C          64.7749   91.9845   16.6004 C.ar    1  UNL1        0.0114
     16 C          65.9773   92.7604   16.1505 C.ar    1  UNL1        0.0017
     17 C          66.4856   92.6091   14.7474 C.ar    1  UNL1        0.0114
     18 C          65.7915   91.6820   13.7942 C.ar    1  UNL1        0.0587
     19 CL         66.2998   91.5307   12.3910 Cl      1  UNL1       -0.0822
     20 S          63.9772   84.0595   14.2676 S.3     1  UNL1       -0.0641
     21 C          63.7133   83.1092   13.1374 C.ar    1  UNL1        0.0585
     22 C          64.4166   83.2909   11.8250 C.ar    1  UNL1        0.0111
     23 C          64.1528   82.3405   10.6948 C.ar    1  UNL1        0.0303
     24 C          63.1857   81.2085   10.8771 C.ar    1  UNL1        0.1424
     25 F          62.9218   80.2581    9.7470 F       1  UNL1       -0.2041
     26 C          62.4824   81.0268   12.1895 C.ar    1  UNL1        0.0598
     27 C          62.7463   81.9772   13.3197 C.ar    1  UNL1        0.1483
     28 F          62.0430   81.7954   14.6321 F       1  UNL1       -0.2036
@<TRIPOS>BOND
     1     1     2    2
     2     2     3   ar
     3     3     4   ar
     4     4     5   ar
     5     5     6   ar
     6     6     7   ar
     7     7    20    1
     8    20    21    1
     9    21    22   ar
    10    22    23   ar
    11    23    24   ar
    12    24    25    1
    13    24    26   ar
    14    26    27   ar
    15    27    28    1
    16     7     8   ar
    17     8     9   ar
    18     9    10   ar
    19    10    11   ar
    20    11    12    1
    21    12    13   ar
    22    13    14    1
    23    13    15   ar
    24    15    16   ar
    25    16    17   ar
    26    17    18   ar
    27    18    19    1
    28    11     2   ar
    29    18    12   ar
    30    10     5   ar
    31    27    21   ar
@<TRIPOS>MOLECULE
*****
 28 31 0 0 0
SMALL
GASTEIGER

@<TRIPOS>ATOM
      1 O          63.1626   92.0116   11.8467 O.2     1  UNL1       -0.2651
      2 C          63.1830   90.5316   12.0905 C.ar    1  UNL1        0.2821
      3 N          62.4897   89.6047   11.1364 N.ar    1  UNL1       -0.1855
      4 C          62.5101   88.1248   11.3802 C.ar    1  UNL1        0.2029
      5 N          63.2237   87.5717   12.5781 N.ar    1  UNL1       -0.2088
      6 N          63.2440   86.0919   12.8219 N.ar    1  UNL1       -0.1571
      7 C          63.9576   85.5389   14.0197 C.ar    1  UNL1        0.1309
      8 C          64.6509   86.4657   14.9739 C.ar    1  UNL1        0.0291
      9 C          64.6305   87.9456   14.7301 C.ar    1  UNL1        0.0215
     10 C          63.9169   88.4986   13.5322 C.ar    1  UNL1        0.0893
     11 C          63.8965   89.9786   13.2884 C.ar    1  UNL1        0.0772
     12 C          64.5898   90.9055   14.2425 C.ar    1  UNL1        0.0273
     13 C          65.7929   91.6811   13.7940 C.ar    1  UNL1        0.0587
     14 CL         66.3027   91.5298   12.3915 Cl      1  UNL1       -0.0822
     15 C          66.4861   92.6080   14.7481 C.ar    1  UNL1        0.0114
     16 C          65.9763   92.7592   16.1507 C.ar    1  UNL1        0.0017
     17 C          64.7732   91.9837   16.5991 C.ar    1  UNL1        0.0114
     18 C          64.0800   91.0568   15.6450 C.ar    1  UNL1        0.0587
     19 CL         62.8769   90.2812   16.0936 Cl      1  UNL1       -0.0822
     20 S          63.9780   84.0589   14.2636 S.3     1  UNL1       -0.0641
     21 C          63.7137   83.1089   13.1333 C.ar    1  UNL1        0.0585
     22 C          64.4157   83.2915   11.8203 C.ar    1  UNL1        0.0111
     23 C          64.1514   82.3415   10.6900 C.ar    1  UNL1        0.0303
     24 C          63.1850   81.2089   10.8726 C.ar    1  UNL1        0.1424
     25 F          62.9206   80.2589    9.7423 F       1  UNL1       -0.2041
     26 C          62.4829   81.0263   12.1855 C.ar    1  UNL1        0.0598
     27 C          62.7473   81.9763   13.3159 C.ar    1  UNL1        0.1483
     28 F          62.0452   81.7937   14.6288 F       1  UNL1       -0.2036
@<TRIPOS>BOND
     1     1     2    2
     2     2     3   ar
     3     3     4   ar
     4     4     5   ar
     5     5     6   ar
     6     6     7   ar
     7     7    20    1
     8    20    21    1
     9    21    22   ar
    10    22    23   ar
    11    23    24   ar
    12    24    25    1
    13    24    26   ar
    14    26    27   ar
    15    27    28    1
    16     7     8   ar
    17     8     9   ar
    18     9    10   ar
    19    10    11   ar
    20    11    12    1
    21    12    13   ar
    22    13    14    1
    23    13    15   ar
    24    15    16   ar
    25    16    17   ar
    26    17    18   ar
    27    18    19    1
    28    11     2   ar
    29    18    12   ar
    30    10     5   ar
    31    27    21   ar
@<TRIPOS>MOLECULE
*****
 28 31 0 0 0
SMALL
GASTEIGER

@<TRIPOS>ATOM
      1 O          61.9033   84.8023   12.1569 O.2     1  UNL1       -0.2651
      2 C          62.5735   86.1200   12.4110 C.ar    1  UNL1        0.2821
      3 N          63.4495   86.2959   13.6159 N.ar    1  UNL1       -0.1855
      4 C          64.1197   87.6135   13.8701 C.ar    1  UNL1        0.2029
      5 N          63.9140   88.7554   12.9193 N.ar    1  UNL1       -0.2088
      6 N          64.5842   90.0730   13.1735 N.ar    1  UNL1       -0.1571
      7 C          64.3785   91.2148   12.2228 C.ar    1  UNL1        0.1309
      8 C          63.5026   91.0389   11.0178 C.ar    1  UNL1        0.0291
      9 C          62.8324   89.7213   10.7637 C.ar    1  UNL1        0.0215
     10 C          63.0381   88.5795   11.7144 C.ar    1  UNL1        0.0893
     11 C          62.3678   87.2618   11.4603 C.ar    1  UNL1        0.0772
     12 C          61.4919   87.0860   10.2553 C.ar    1  UNL1        0.0273
     13 C          60.1274   87.7082   10.2228 C.ar    1  UNL1        0.0587
     14 CL         59.6388   88.5061   11.3952 Cl      1  UNL1       -0.0822
     15 C          59.2514   87.5323    9.0179 C.ar    1  UNL1        0.0114
     16 C          59.7401   86.7343    7.8455 C.ar    1  UNL1        0.0017
     17 C          61.1046   86.1122    7.8780 C.ar    1  UNL1        0.0114
     18 C          61.9805   86.2881    9.0829 C.ar    1  UNL1        0.0587
     19 CL         63.3450   85.6659    9.1154 Cl      1  UNL1       -0.0822
     20 S          65.0487   92.5325   12.4769 S.3     1  UNL1       -0.0641
     21 C          65.8172   93.2070   11.3795 C.ar    1  UNL1        0.0585
     22 C          65.2854   94.4621   10.7534 C.ar    1  UNL1        0.0111
     23 C          66.0538   95.1367    9.6559 C.ar    1  UNL1        0.0303
     24 C          67.3542   94.5561    9.1846 C.ar    1  UNL1        0.1424
     25 F          68.1227   95.2307    8.0871 F       1  UNL1       -0.2041
     26 C          67.8860   93.3011    9.8106 C.ar    1  UNL1        0.0598
     27 C          67.1175   92.6265   10.9081 C.ar    1  UNL1        0.1483
     28 F          67.6494   91.3714   11.5342 F       1  UNL1       -0.2036
@<TRIPOS>BOND
     1     1     2    2
     2     2     3   ar
     3     3     4   ar
     4     4     5   ar
     5     5     6   ar
     6     6     7   ar
     7     7    20    1
     8    20    21    1
     9    21    22   ar
    10    22    23   ar
    11    23    24   ar
    12    24    25    1
    13    24    26   ar
    14    26    27   ar
    15    27    28    1
    16     7     8   ar
    17     8     9   ar
    18     9    10   ar
    19    10    11   ar
    20    11    12    1
    21    12    13   ar
    22    13    14    1
    23    13    15   ar
    24    15    16   ar
    25    16    17   ar
    26    17    18   ar
    27    18    19    1
    28    11     2   ar
    29    18    12   ar
    30    10     5   ar
    31    27    21   ar
@<TRIPOS>MOLECULE
*****
 28 31 0 0 0
SMALL
GASTEIGER

@<TRIPOS>ATOM
      1 O          65.1167   93.3302   11.8438 O.2     1  UNL1       -0.2651
      2 C          64.6044   91.9335   12.0363 C.ar    1  UNL1        0.2821
      3 N          63.6352   91.3479   11.0525 N.ar    1  UNL1       -0.1855
      4 C          63.1230   89.9513   11.2450 C.ar    1  UNL1        0.2029
      5 N          63.5799   89.1402   12.4212 N.ar    1  UNL1       -0.2088
      6 N          63.0676   87.7437   12.6136 N.ar    1  UNL1       -0.1571
      7 C          63.5246   86.9327   13.7898 C.ar    1  UNL1        0.1309
      8 C          64.4937   87.5183   14.7736 C.ar    1  UNL1        0.0291
      9 C          65.0060   88.9149   14.5812 C.ar    1  UNL1        0.0215
     10 C          64.5491   89.7258   13.4050 C.ar    1  UNL1        0.0893
     11 C          65.0613   91.1225   13.2125 C.ar    1  UNL1        0.0772
     12 C          66.0305   91.7081   14.1962 C.ar    1  UNL1        0.0273
     13 C          67.4610   91.9260   13.8008 C.ar    1  UNL1        0.0587
     14 CL         67.9222   91.5584   12.4217 Cl      1  UNL1       -0.0822
     15 C          68.4302   92.5116   14.7846 C.ar    1  UNL1        0.0114
     16 C          67.9688   92.8793   16.1638 C.ar    1  UNL1        0.0017
     17 C          66.5384   92.6614   16.5591 C.ar    1  UNL1        0.0114
     18 C          65.5693   92.0758   15.5754 C.ar    1  UNL1        0.0587
     19 CL         64.1388   91.8579   15.9708 Cl      1  UNL1       -0.0822
     20 S          63.0123   85.5360   13.9823 S.3     1  UNL1       -0.0641
     21 C          63.3094   84.4805   12.9587 C.ar    1  UNL1        0.0585
     22 C          62.9508   84.7088   11.5202 C.ar    1  UNL1        0.0111
     23 C          63.2478   83.6533   10.4966 C.ar    1  UNL1        0.0303
     24 C          63.9034   82.3695   10.9116 C.ar    1  UNL1        0.1424
     25 F          64.2005   81.3140    9.8880 F       1  UNL1       -0.2041
     26 C          64.2620   82.1413   12.3501 C.ar    1  UNL1        0.0598
     27 C          63.9649   83.1968   13.3737 C.ar    1  UNL1        0.1483
     28 F          64.3235   82.9685   14.8122 F       1  UNL1       -0.2036
@<TRIPOS>BOND
     1     1     2    2
     2     2     3   ar
     3     3     4   ar
     4     4     5   ar
     5     5     6   ar
     6     6     7   ar
     7     7    20    1
     8    20    21    1
     9    21    22   ar
    10    22    23   ar
    11    23    24   ar
    12    24    25    1
    13    24    26   ar
    14    26    27   ar
    15    27    28    1
    16     7     8   ar
    17     8     9   ar
    18     9    10   ar
    19    10    11   ar
    20    11    12    1
    21    12    13   ar
    22    13    14    1
    23    13    15   ar
    24    15    16   ar
    25    16    17   ar
    26    17    18   ar
    27    18    19    1
    28    11     2   ar
    29    18    12   ar
    30    10     5   ar
    31    27    21   ar
@<TRIPOS>MOLECULE
*****
 28 31 0 0 0
SMALL
GASTEIGER

@<TRIPOS>ATOM
      1 O          65.1324   93.3510   11.8622 O.2     1  UNL1       -0.2651
      2 C          64.6175   91.9546   12.0495 C.ar    1  UNL1        0.2821
      3 N          63.6468   91.3747   11.0638 N.ar    1  UNL1       -0.1855
      4 C          63.1320   89.9783   11.2511 C.ar    1  UNL1        0.2029
      5 N          63.5877   89.1618   12.4240 N.ar    1  UNL1       -0.2088
      6 N          63.0729   87.7655   12.6112 N.ar    1  UNL1       -0.1571
      7 C          63.5286   86.9491   13.7841 C.ar    1  UNL1        0.1309
      8 C          64.4993   87.5290   14.7697 C.ar    1  UNL1        0.0291
      9 C          65.0142   88.9253   14.5825 C.ar    1  UNL1        0.0215
     10 C          64.5584   89.7417   13.4096 C.ar    1  UNL1        0.0893
     11 C          65.0733   91.1382   13.2224 C.ar    1  UNL1        0.0772
     12 C          66.0439   91.7181   14.2080 C.ar    1  UNL1        0.0273
     13 C          65.5827   92.0859   15.5872 C.ar    1  UNL1        0.0587
     14 CL         64.1509   91.8738   15.9807 Cl      1  UNL1       -0.0822
     15 C          66.5534   92.6658   16.5729 C.ar    1  UNL1        0.0114
     16 C          67.9853   92.8779   16.1793 C.ar    1  UNL1        0.0017
     17 C          68.4464   92.5101   14.8002 C.ar    1  UNL1        0.0114
     18 C          67.4758   91.9302   13.8146 C.ar    1  UNL1        0.0587
     19 CL         67.9370   91.5624   12.4354 Cl      1  UNL1       -0.0822
     20 S          63.0138   85.5526   13.9713 S.3     1  UNL1       -0.0641
     21 C          63.3153   84.4985   12.9476 C.ar    1  UNL1        0.0585
     22 C          62.9651   84.7297   11.5075 C.ar    1  UNL1        0.0111
     23 C          63.2666   83.6756   10.4838 C.ar    1  UNL1        0.0303
     24 C          63.9184   82.3903   10.9002 C.ar    1  UNL1        0.1424
     25 F          64.2200   81.3363    9.8766 F       1  UNL1       -0.2041
     26 C          64.2686   82.1593   12.3403 C.ar    1  UNL1        0.0598
     27 C          63.9671   83.2134   13.3640 C.ar    1  UNL1        0.1483
     28 F          64.3173   82.9822   14.8042 F       1  UNL1       -0.2036
@<TRIPOS>BOND
     1     1     2    2
     2     2     3   ar
     3     3     4   ar
     4     4     5   ar
     5     5     6   ar
     6     6     7   ar
     7     7    20    1
     8    20    21    1
     9    21    22   ar
    10    22    23   ar
    11    23    24   ar
    12    24    25    1
    13    24    26   ar
    14    26    27   ar
    15    27    28    1
    16     7     8   ar
    17     8     9   ar
    18     9    10   ar
    19    10    11   ar
    20    11    12    1
    21    12    13   ar
    22    13    14    1
    23    13    15   ar
    24    15    16   ar
    25    16    17   ar
    26    17    18   ar
    27    18    19    1
    28    11     2   ar
    29    18    12   ar
    30    10     5   ar
    31    27    21   ar
@<TRIPOS>MOLECULE
*****
 28 31 0 0 0
SMALL
GASTEIGER

@<TRIPOS>ATOM
      1 O          60.3507   85.7539    8.8209 O.2     1  UNL1       -0.2651
      2 C          60.7877   86.8740    9.7178 C.ar    1  UNL1        0.2821
      3 N          60.0993   88.2048    9.6456 N.ar    1  UNL1       -0.1855
      4 C          60.5363   89.3248   10.5425 C.ar    1  UNL1        0.2029
      5 N          61.6617   89.1142   11.5117 N.ar    1  UNL1       -0.2088
      6 N          62.0986   90.2342   12.4086 N.ar    1  UNL1       -0.1571
      7 C          63.2239   90.0235   13.3777 C.ar    1  UNL1        0.1309
      8 C          63.9122   88.6927   13.4500 C.ar    1  UNL1        0.0291
      9 C          63.4753   87.5726   12.5531 C.ar    1  UNL1        0.0215
     10 C          62.3500   87.7834   11.5840 C.ar    1  UNL1        0.0893
     11 C          61.9130   86.6633   10.6870 C.ar    1  UNL1        0.0772
     12 C          62.6013   85.3325   10.7592 C.ar    1  UNL1        0.0273
     13 C          63.3314   84.7998    9.5620 C.ar    1  UNL1        0.0587
     14 CL         63.3732   85.5979    8.2927 Cl      1  UNL1       -0.0822
     15 C          64.0197   83.4690    9.6342 C.ar    1  UNL1        0.0114
     16 C          63.9779   82.6709   10.9037 C.ar    1  UNL1        0.0017
     17 C          63.2478   83.2036   12.1008 C.ar    1  UNL1        0.0114
     18 C          62.5595   84.5344   12.0286 C.ar    1  UNL1        0.0587
     19 CL         61.8294   85.0671   13.2258 Cl      1  UNL1       -0.0822
     20 S          63.6609   91.1436   14.2747 S.3     1  UNL1       -0.0641
     21 C          65.1078   91.5347   14.3356 C.ar    1  UNL1        0.0585
     22 C          65.9586   91.4558   13.1027 C.ar    1  UNL1        0.0111
     23 C          67.4054   91.8469   13.1636 C.ar    1  UNL1        0.0303
     24 C          68.0014   92.3169   14.4574 C.ar    1  UNL1        0.1424
     25 F          69.4483   92.7080   14.5183 F       1  UNL1       -0.2041
     26 C          67.1506   92.3958   15.6902 C.ar    1  UNL1        0.0598
     27 C          65.7038   92.0047   15.6293 C.ar    1  UNL1        0.1483
     28 F          64.8530   92.0837   16.8623 F       1  UNL1       -0.2036
@<TRIPOS>BOND
     1     1     2    2
     2     2     3   ar
     3     3     4   ar
     4     4     5   ar
     5     5     6   ar
     6     6     7   ar
     7     7    20    1
     8    20    21    1
     9    21    22   ar
    10    22    23   ar
    11    23    24   ar
    12    24    25    1
    13    24    26   ar
    14    26    27   ar
    15    27    28    1
    16     7     8   ar
    17     8     9   ar
    18     9    10   ar
    19    10    11   ar
    20    11    12    1
    21    12    13   ar
    22    13    14    1
    23    13    15   ar
    24    15    16   ar
    25    16    17   ar
    26    17    18   ar
    27    18    19    1
    28    11     2   ar
    29    18    12   ar
    30    10     5   ar
    31    27    21   ar
@<TRIPOS>MOLECULE
*****
 28 31 0 0 0
SMALL
GASTEIGER

@<TRIPOS>ATOM
      1 O          60.4388   85.7106    8.8341 O.2     1  UNL1       -0.2651
      2 C          60.8560   86.8441    9.7237 C.ar    1  UNL1        0.2821
      3 N          60.1593   88.1689    9.6270 N.ar    1  UNL1       -0.1855
      4 C          60.5764   89.3023   10.5166 C.ar    1  UNL1        0.2029
      5 N          61.6903   89.1109   11.5029 N.ar    1  UNL1       -0.2088
      6 N          62.1074   90.2443   12.3924 N.ar    1  UNL1       -0.1571
      7 C          63.2213   90.0529   13.3786 C.ar    1  UNL1        0.1309
      8 C          63.9180   88.7280   13.4753 C.ar    1  UNL1        0.0291
      9 C          63.5008   87.5946   12.5858 C.ar    1  UNL1        0.0215
     10 C          62.3870   87.7861   11.5996 C.ar    1  UNL1        0.0893
     11 C          61.9698   86.6526   10.7099 C.ar    1  UNL1        0.0772
     12 C          62.6665   85.3277   10.8066 C.ar    1  UNL1        0.0273
     13 C          62.6345   84.5556   12.0923 C.ar    1  UNL1        0.0587
     14 CL         61.9059   85.1084   13.2812 Cl      1  UNL1       -0.0822
     15 C          63.3312   83.2308   12.1890 C.ar    1  UNL1        0.0114
     16 C          64.0599   82.6780   11.0000 C.ar    1  UNL1        0.0017
     17 C          64.0918   83.4501    9.7144 C.ar    1  UNL1        0.0114
     18 C          63.3951   84.7750    9.6177 C.ar    1  UNL1        0.0587
     19 CL         63.4271   85.5471    8.3321 Cl      1  UNL1       -0.0822
     20 S          63.6385   91.1863   14.2682 S.3     1  UNL1       -0.0641
     21 C          65.0853   91.5697   14.3659 C.ar    1  UNL1        0.0585
     22 C          65.9744   91.4552   13.1631 C.ar    1  UNL1        0.0111
     23 C          67.4213   91.8385   13.2607 C.ar    1  UNL1        0.0303
     24 C          67.9791   92.3364   14.5611 C.ar    1  UNL1        0.1424
     25 F          69.4260   92.7198   14.6587 F       1  UNL1       -0.2041
     26 C          67.0901   92.4510   15.7638 C.ar    1  UNL1        0.0598
     27 C          65.6432   92.0676   15.6662 C.ar    1  UNL1        0.1483
     28 F          64.7542   92.1821   16.8689 F       1  UNL1       -0.2036
@<TRIPOS>BOND
     1     1     2    2
     2     2     3   ar
     3     3     4   ar
     4     4     5   ar
     5     5     6   ar
     6     6     7   ar
     7     7    20    1
     8    20    21    1
     9    21    22   ar
    10    22    23   ar
    11    23    24   ar
    12    24    25    1
    13    24    26   ar
    14    26    27   ar
    15    27    28    1
    16     7     8   ar
    17     8     9   ar
    18     9    10   ar
    19    10    11   ar
    20    11    12    1
    21    12    13   ar
    22    13    14    1
    23    13    15   ar
    24    15    16   ar
    25    16    17   ar
    26    17    18   ar
    27    18    19    1
    28    11     2   ar
    29    18    12   ar
    30    10     5   ar
    31    27    21   ar
