@<TRIPOS>MOLECULE
*****
 38 41 0 0 0
SMALL
GASTEIGER

@<TRIPOS>ATOM
      1 C          61.0821   88.8792    9.7615 C.ar    1  UNL1       -0.0074
      2 C          61.7715   87.7833   10.5189 C.ar    1  UNL1       -0.0050
      3 C          61.5524   86.3509   10.1311 C.ar    1  UNL1        0.0067
      4 C          60.6440   86.0144    8.9860 C.ar    1  UNL1       -0.0010
      5 C          59.9545   87.1103    8.2285 C.ar    1  UNL1        0.0108
      6 C          60.1736   88.5426    8.6163 C.ar    1  UNL1        0.0540
      7 CL         59.4842   89.6385    7.8588 Cl      1  UNL1       -0.0826
      8 C          62.2419   85.2550   10.8886 C.3     1  UNL1        0.1667
      9 O          61.9960   85.0901   12.3591 O.3     1  UNL1       -0.3466
     10 C          62.6854   83.9942   13.1166 C.3     1  UNL1        0.1739
     11 C          63.6207   83.0632   12.4035 C.3     1  UNL1        0.1692
     12 O          64.3101   81.9673   13.1609 O.3     1  UNL1       -0.3794
     13 C          63.8665   83.2280   10.9330 C.3     1  UNL1        0.1692
     14 O          64.8017   82.2970   10.2199 O.3     1  UNL1       -0.3794
     15 C          63.1771   84.3239   10.1755 C.3     1  UNL1        0.1709
     16 O          63.4229   84.4888    8.7051 O.3     1  UNL1       -0.3792
     17 H          64.0430   82.0008   14.0928 H       1  UNL1        0.2105
     18 H          65.1595   81.6525   10.8505 H       1  UNL1        0.2105
     19 H          62.9040   85.2378    8.3725 H       1  UNL1        0.2106
     20 C          62.4396   83.8294   14.5871 C.3     1  UNL1        0.1692
     21 O          62.6544   82.4953   15.2385 O.3     1  UNL1       -0.3794
     22 H          62.0083   81.8593   14.8936 H       1  UNL1        0.2105
     23 C          61.3011   90.3115   10.1492 C.3     1  UNL1        0.0535
     24 C          64.9807   91.4791   12.4616 C.ar    1  UNL1        0.0558
     25 C          64.7797   91.9881   11.0650 C.ar    1  UNL1        0.0147
     26 C          63.5532   91.5989   10.2943 C.ar    1  UNL1       -0.0027
     27 C          62.5277   90.7007   10.9201 C.ar    1  UNL1       -0.0177
     28 C          62.7287   90.1918   12.3167 C.ar    1  UNL1       -0.0027
     29 C          63.9552   90.5810   13.0875 C.ar    1  UNL1        0.0147
     30 N          67.6669   92.6502   15.0069 N.am    1  UNL1       -0.2125
     31 C          68.5225   92.2843   13.8303 C.2     1  UNL1        0.2532
     32 O          70.0176   92.3842   13.7623 O.2     1  UNL1       -0.2725
     33 C          67.6203   91.8012   12.7337 C.3     1  UNL1        0.1851
     34 N          66.2073   91.8684   13.2325 N.am    1  UNL1       -0.2336
     35 C          66.2361   92.3931   14.6374 C.2     1  UNL1        0.3171
     36 O          65.0435   92.6208   15.5182 O.2     1  UNL1       -0.2516
     37 C          69.1653   94.2896   16.3550 C.3     1  UNL1        0.0238
     38 C          68.1564   93.1801   16.3221 C.3     1  UNL1        0.1026
@<TRIPOS>BOND
     1    37    38    1
     2    38    30    1
     3    30    31   am
     4    31    32    2
     5    31    33    1
     6    33    34    1
     7    34    24    1
     8    24    25   ar
     9    25    26   ar
    10    26    27   ar
    11    27    23    1
    12    23     1    1
    13     1     2   ar
    14     2     3   ar
    15     8     3    1
    16     8     9    1
    17     9    10    1
    18    10    20    1
    19    20    21    1
    20    10    11    1
    21    11    12    1
    22    11    13    1
    23    13    14    1
    24    13    15    1
    25    15    16    1
    26     3     4   ar
    27     4     5   ar
    28     5     6   ar
    29     6     7    1
    30    27    28   ar
    31    28    29   ar
    32    34    35   am
    33    35    36    2
    34    35    30   am
    35    29    24   ar
    36     6     1   ar
    37    15     8    1
    38    21    22    1
    39    12    17    1
    40    14    18    1
    41    16    19    1
@<TRIPOS>MOLECULE
*****
 38 41 0 0 0
SMALL
GASTEIGER

@<TRIPOS>ATOM
      1 C          61.3381   88.4298   10.2113 C.ar    1  UNL1       -0.0074
      2 C          61.9557   87.3867   11.0947 C.ar    1  UNL1       -0.0050
      3 C          61.8306   85.9344   10.7406 C.ar    1  UNL1        0.0067
      4 C          61.0880   85.5253    9.5032 C.ar    1  UNL1       -0.0010
      5 C          60.4705   86.5685    8.6198 C.ar    1  UNL1        0.0108
      6 C          60.5955   88.0207    8.9738 C.ar    1  UNL1        0.0540
      7 CL         59.9780   89.0639    8.0904 Cl      1  UNL1       -0.0826
      8 C          62.4481   84.8912   11.6240 C.3     1  UNL1        0.1667
      9 O          62.2715   83.4365   11.3032 O.3     1  UNL1       -0.3466
     10 C          62.8891   82.3933   12.1866 C.3     1  UNL1        0.1739
     11 C          63.6832   82.8048   13.3908 C.3     1  UNL1        0.1692
     12 O          64.3008   81.7616   14.2742 O.3     1  UNL1       -0.3794
     13 C          63.8599   84.2594   13.7116 C.3     1  UNL1        0.1692
     14 O          64.6540   84.6708   14.9157 O.3     1  UNL1       -0.3794
     15 C          63.2423   85.3026   12.8282 C.3     1  UNL1        0.1709
     16 O          63.4189   86.7572   13.1489 O.3     1  UNL1       -0.3792
     17 H          64.0922   80.8799   13.9279 H       1  UNL1        0.2105
     18 H          64.9804   83.8803   15.3733 H       1  UNL1        0.2105
     19 H          62.9601   87.2931   12.4832 H       1  UNL1        0.2106
     20 C          62.7124   80.9387   11.8659 C.3     1  UNL1        0.1692
     21 O          62.3635   79.9676   12.9546 O.3     1  UNL1       -0.3794
     22 H          63.1005   79.9071   13.5823 H       1  UNL1        0.2105
     23 C          61.4631   89.8821   10.5653 C.3     1  UNL1        0.0535
     24 C          65.1193   91.3636   12.7304 C.ar    1  UNL1        0.0558
     25 C          64.8287   91.8383   11.3375 C.ar    1  UNL1        0.0147
     26 C          63.6100   91.3445   10.6159 C.ar    1  UNL1       -0.0027
     27 C          62.6819   90.3759   11.2870 C.ar    1  UNL1       -0.0177
     28 C          62.9725   89.9012   12.6799 C.ar    1  UNL1       -0.0027
     29 C          64.1912   90.3950   13.4016 C.ar    1  UNL1        0.0147
     30 N          67.7828   92.8487   15.1316 N.am    1  UNL1       -0.2125
     31 C          68.6441   92.3859   13.9939 C.2     1  UNL1        0.2532
     32 O          70.1362   92.5133   13.9091 O.2     1  UNL1       -0.2725
     33 C          67.7511   91.7732   12.9560 C.3     1  UNL1        0.1851
     34 N          66.3380   91.8574   13.4522 N.am    1  UNL1       -0.2336
     35 C          66.3576   92.5221   14.7967 C.2     1  UNL1        0.3171
     36 O          65.1620   92.8097   15.6556 O.2     1  UNL1       -0.2516
     37 C          69.3738   94.5256   16.3176 C.3     1  UNL1        0.0238
     38 C          68.2626   93.5203   16.3841 C.3     1  UNL1        0.1026
@<TRIPOS>BOND
     1    37    38    1
     2    38    30    1
     3    30    31   am
     4    31    32    2
     5    31    33    1
     6    33    34    1
     7    34    24    1
     8    24    25   ar
     9    25    26   ar
    10    26    27   ar
    11    27    23    1
    12    23     1    1
    13     1     2   ar
    14     2     3   ar
    15     8     3    1
    16     8     9    1
    17     9    10    1
    18    10    20    1
    19    20    21    1
    20    10    11    1
    21    11    12    1
    22    11    13    1
    23    13    14    1
    24    13    15    1
    25    15    16    1
    26     3     4   ar
    27     4     5   ar
    28     5     6   ar
    29     6     7    1
    30    27    28   ar
    31    28    29   ar
    32    34    35   am
    33    35    36    2
    34    35    30   am
    35    29    24   ar
    36     6     1   ar
    37    15     8    1
    38    21    22    1
    39    12    17    1
    40    14    18    1
    41    16    19    1
@<TRIPOS>MOLECULE
*****
 38 41 0 0 0
SMALL
GASTEIGER

@<TRIPOS>ATOM
      1 C          63.5434   90.7372   12.8660 C.ar    1  UNL1       -0.0074
      2 C          64.2457   91.6038   11.8631 C.ar    1  UNL1       -0.0050
      3 C          65.4344   92.4192   12.2782 C.ar    1  UNL1        0.0067
      4 C          65.9207   92.3680   13.6962 C.ar    1  UNL1       -0.0010
      5 C          65.2185   91.5014   14.6991 C.ar    1  UNL1        0.0108
      6 C          64.0298   90.6860   14.2841 C.ar    1  UNL1        0.0540
      7 CL         63.3276   89.8195   15.2870 Cl      1  UNL1       -0.0826
      8 C          66.1367   93.2858   11.2753 C.3     1  UNL1        0.1667
      9 O          65.4647   94.5192   10.7488 O.3     1  UNL1       -0.3466
     10 C          66.1670   95.3858    9.7459 C.3     1  UNL1        0.1739
     11 C          67.5412   95.0189    9.2694 C.3     1  UNL1        0.1692
     12 O          68.2435   95.8855    8.2665 O.3     1  UNL1       -0.3794
     13 C          68.2131   93.7855    9.7959 C.3     1  UNL1        0.1692
     14 O          69.5873   93.4187    9.3195 O.3     1  UNL1       -0.3794
     15 C          67.5109   92.9189   10.7989 C.3     1  UNL1        0.1709
     16 O          68.1828   91.6855   11.3254 O.3     1  UNL1       -0.3792
     17 H          67.6747   96.6356    8.0327 H       1  UNL1        0.2105
     18 H          69.8942   94.0788    8.6785 H       1  UNL1        0.2105
     19 H          67.5967   91.2438   11.9596 H       1  UNL1        0.2106
     20 C          65.4951   96.6192    9.2194 C.3     1  UNL1        0.1692
     21 O          64.0116   96.7860    9.3665 O.3     1  UNL1       -0.3794
     22 H          63.5564   96.1139    8.8354 H       1  UNL1        0.2105
     23 C          62.3548   89.9219   12.4509 C.3     1  UNL1        0.0535
     24 C          62.7258   85.4572   12.0275 C.ar    1  UNL1        0.0558
     25 C          61.7534   86.2135   11.1717 C.ar    1  UNL1        0.0147
     26 C          61.6298   87.7017   11.3128 C.ar    1  UNL1       -0.0027
     27 C          62.4785   88.4336   12.3098 C.ar    1  UNL1       -0.0177
     28 C          63.4508   87.6773   13.1656 C.ar    1  UNL1       -0.0027
     29 C          63.5745   86.1891   13.0245 C.ar    1  UNL1        0.0147
     30 N          62.8627   81.5955   12.3933 N.am    1  UNL1       -0.2125
     31 C          63.2168   81.7622   10.9451 C.2     1  UNL1        0.2532
     32 O          63.5249   80.6562    9.9798 O.2     1  UNL1       -0.2725
     33 C          63.2086   83.2291   10.6319 C.3     1  UNL1        0.1851
     34 N          62.8494   83.9690   11.8864 N.am    1  UNL1       -0.2336
     35 C          62.6357   82.9593   12.9749 C.2     1  UNL1        0.3171
     36 O          62.2608   83.2606   14.3957 O.2     1  UNL1       -0.2516
     37 C          61.5342   79.9943   13.9492 C.3     1  UNL1        0.0238
     38 C          62.7547   80.2935   13.1302 C.3     1  UNL1        0.1026
@<TRIPOS>BOND
     1    37    38    1
     2    38    30    1
     3    30    31   am
     4    31    32    2
     5    31    33    1
     6    33    34    1
     7    34    24    1
     8    24    25   ar
     9    25    26   ar
    10    26    27   ar
    11    27    23    1
    12    23     1    1
    13     1     2   ar
    14     2     3   ar
    15     8     3    1
    16     8     9    1
    17     9    10    1
    18    10    20    1
    19    20    21    1
    20    10    11    1
    21    11    12    1
    22    11    13    1
    23    13    14    1
    24    13    15    1
    25    15    16    1
    26     3     4   ar
    27     4     5   ar
    28     5     6   ar
    29     6     7    1
    30    27    28   ar
    31    28    29   ar
    32    34    35   am
    33    35    36    2
    34    35    30   am
    35    29    24   ar
    36     6     1   ar
    37    15     8    1
    38    21    22    1
    39    12    17    1
    40    14    18    1
    41    16    19    1
@<TRIPOS>MOLECULE
*****
 38 41 0 0 0
SMALL
GASTEIGER

@<TRIPOS>ATOM
      1 C          59.9322   88.9040    8.1743 C.ar    1  UNL1       -0.0074
      2 C          60.7971   89.8028    9.0074 C.ar    1  UNL1       -0.0050
      3 C          61.8321   89.2132    9.9193 C.ar    1  UNL1        0.0067
      4 C          62.0020   87.7250    9.9980 C.ar    1  UNL1       -0.0010
      5 C          61.1371   86.8262    9.1648 C.ar    1  UNL1        0.0108
      6 C          60.1022   87.4157    8.2530 C.ar    1  UNL1        0.0540
      7 CL         59.2372   86.5170    7.4199 Cl      1  UNL1       -0.0826
      8 C          62.6970   90.1120   10.7524 C.3     1  UNL1        0.1667
      9 O          63.7220   90.9874   10.0942 O.3     1  UNL1       -0.3466
     10 C          64.5870   91.8861   10.9274 C.3     1  UNL1        0.1739
     11 C          64.4269   91.9095   12.4187 C.3     1  UNL1        0.1692
     12 O          65.2919   92.8082   13.2518 O.3     1  UNL1       -0.3794
     13 C          63.4020   91.0341   13.0768 C.3     1  UNL1        0.1692
     14 O          63.2420   91.0575   14.5680 O.3     1  UNL1       -0.3794
     15 C          62.5370   90.1353   12.2436 C.3     1  UNL1        0.1709
     16 O          61.5121   89.2599   12.9017 O.3     1  UNL1       -0.3792
     17 H          65.8954   93.3019   12.6748 H       1  UNL1        0.2105
     18 H          63.8727   91.6870   14.9510 H       1  UNL1        0.2105
     19 H          61.0430   88.7467   12.2254 H       1  UNL1        0.2106
     20 C          65.6119   92.7615   10.2693 C.3     1  UNL1        0.1692
     21 O          65.4704   94.2539   10.3244 O.3     1  UNL1       -0.3794
     22 H          64.6831   94.5226    9.8257 H       1  UNL1        0.2105
     23 C          58.8973   89.4935    7.2625 C.3     1  UNL1        0.0535
     24 C          60.1615   92.0188    3.7590 C.ar    1  UNL1        0.0558
     25 C          61.1652   91.1520    4.4597 C.ar    1  UNL1        0.0147
     26 C          60.7438   90.3103    5.6275 C.ar    1  UNL1       -0.0027
     27 C          59.3187   90.3353    6.0946 C.ar    1  UNL1       -0.0177
     28 C          58.3149   91.2021    5.3939 C.ar    1  UNL1       -0.0027
     29 C          58.7363   92.0439    4.2261 C.ar    1  UNL1        0.0147
     30 N          61.9507   94.0498    0.9770 N.am    1  UNL1       -0.2125
     31 C          60.5116   94.2624    0.6110 C.2     1  UNL1        0.2532
     32 O          60.0066   95.0683   -0.5489 O.2     1  UNL1       -0.2725
     33 C          59.6663   93.5274    1.6086 C.3     1  UNL1        0.1851
     34 N          60.5828   92.8607    2.5911 N.am    1  UNL1       -0.2336
     35 C          61.9947   93.1835    2.2008 C.2     1  UNL1        0.3171
     36 O          63.2331   92.7213    2.9097 O.2     1  UNL1       -0.2516
     37 C          63.6587   93.9116   -0.9759 C.3     1  UNL1        0.0238
     38 C          63.1375   94.6059    0.2473 C.3     1  UNL1        0.1026
@<TRIPOS>BOND
     1    37    38    1
     2    38    30    1
     3    30    31   am
     4    31    32    2
     5    31    33    1
     6    33    34    1
     7    34    24    1
     8    24    25   ar
     9    25    26   ar
    10    26    27   ar
    11    27    23    1
    12    23     1    1
    13     1     2   ar
    14     2     3   ar
    15     8     3    1
    16     8     9    1
    17     9    10    1
    18    10    20    1
    19    20    21    1
    20    10    11    1
    21    11    12    1
    22    11    13    1
    23    13    14    1
    24    13    15    1
    25    15    16    1
    26     3     4   ar
    27     4     5   ar
    28     5     6   ar
    29     6     7    1
    30    27    28   ar
    31    28    29   ar
    32    34    35   am
    33    35    36    2
    34    35    30   am
    35    29    24   ar
    36     6     1   ar
    37    15     8    1
    38    21    22    1
    39    12    17    1
    40    14    18    1
    41    16    19    1
@<TRIPOS>MOLECULE
*****
 38 41 0 0 0
SMALL
GASTEIGER

@<TRIPOS>ATOM
      1 C          59.9258   88.7027    8.2639 C.ar    1  UNL1       -0.0074
      2 C          60.7205   89.5243    9.2352 C.ar    1  UNL1       -0.0050
      3 C          61.7558   88.8692   10.1006 C.ar    1  UNL1        0.0067
      4 C          61.9964   87.3924    9.9948 C.ar    1  UNL1       -0.0010
      5 C          61.2017   86.5707    9.0236 C.ar    1  UNL1        0.0108
      6 C          60.1664   87.2258    8.1581 C.ar    1  UNL1        0.0540
      7 CL         59.3717   86.4042    7.1869 Cl      1  UNL1       -0.0826
      8 C          62.5506   89.6908   11.0718 C.3     1  UNL1        0.1667
      9 O          62.6965   89.2375   12.4943 O.3     1  UNL1       -0.3466
     10 C          63.4913   90.0591   13.4655 C.3     1  UNL1        0.1739
     11 C          64.1400   91.3342   13.0143 C.3     1  UNL1        0.1692
     12 O          64.9347   92.1558   13.9855 O.3     1  UNL1       -0.3794
     13 C          63.9940   91.7875   11.5919 C.3     1  UNL1        0.1692
     14 O          64.6427   93.0625   11.1408 O.3     1  UNL1       -0.3794
     15 C          63.1993   90.9658   10.6207 C.3     1  UNL1        0.1709
     16 O          63.0533   91.4191    9.1984 O.3     1  UNL1       -0.3792
     17 H          64.9291   91.7246   14.8544 H       1  UNL1        0.2105
     18 H          65.1137   93.4669   11.8861 H       1  UNL1        0.2105
     19 H          62.5137   90.7788    8.7087 H       1  UNL1        0.2106
     20 C          63.6373   89.6058   14.8878 C.3     1  UNL1        0.1692
     21 O          63.4059   90.5731   16.0108 O.3     1  UNL1       -0.3794
     22 H          64.0879   91.2625   15.9894 H       1  UNL1        0.2105
     23 C          58.8905   89.3578    7.3985 C.3     1  UNL1        0.0535
     24 C          60.1569   91.9036    3.9107 C.ar    1  UNL1        0.0558
     25 C          58.7315   91.9261    4.3772 C.ar    1  UNL1        0.0147
     26 C          58.3094   91.0775    5.5397 C.ar    1  UNL1       -0.0027
     27 C          59.3127   90.2064    6.2359 C.ar    1  UNL1       -0.0177
     28 C          60.7381   90.1839    5.7694 C.ar    1  UNL1       -0.0027
     29 C          61.1602   91.0326    4.6068 C.ar    1  UNL1        0.0147
     30 N          61.9484   93.9348    1.1303 N.am    1  UNL1       -0.2125
     31 C          60.5090   94.1815    0.7877 C.2     1  UNL1        0.2532
     32 O          60.0045   95.0131   -0.3542 O.2     1  UNL1       -0.2725
     33 C          59.6628   93.4507    1.7876 C.3     1  UNL1        0.1851
     34 N          60.5791   92.7523    2.7481 N.am    1  UNL1       -0.2336
     35 C          61.9917   93.0515    2.3418 C.2     1  UNL1        0.3171
     36 O          63.2302   92.5546    3.0268 O.2     1  UNL1       -0.2516
     37 C          64.0782   95.4218    1.0754 C.3     1  UNL1        0.0238
     38 C          63.1360   94.4763    0.3911 C.3     1  UNL1        0.1026
@<TRIPOS>BOND
     1    37    38    1
     2    38    30    1
     3    30    31   am
     4    31    32    2
     5    31    33    1
     6    33    34    1
     7    34    24    1
     8    24    25   ar
     9    25    26   ar
    10    26    27   ar
    11    27    23    1
    12    23     1    1
    13     1     2   ar
    14     2     3   ar
    15     8     3    1
    16     8     9    1
    17     9    10    1
    18    10    20    1
    19    20    21    1
    20    10    11    1
    21    11    12    1
    22    11    13    1
    23    13    14    1
    24    13    15    1
    25    15    16    1
    26     3     4   ar
    27     4     5   ar
    28     5     6   ar
    29     6     7    1
    30    27    28   ar
    31    28    29   ar
    32    34    35   am
    33    35    36    2
    34    35    30   am
    35    29    24   ar
    36     6     1   ar
    37    15     8    1
    38    21    22    1
    39    12    17    1
    40    14    18    1
    41    16    19    1
@<TRIPOS>MOLECULE
*****
 38 41 0 0 0
SMALL
GASTEIGER

@<TRIPOS>ATOM
      1 C          63.4654   88.5107   15.8803 C.ar    1  UNL1       -0.0074
      2 C          63.5727   87.7279   14.6053 C.ar    1  UNL1       -0.0050
      3 C          63.4168   86.2361   14.6257 C.ar    1  UNL1        0.0067
      4 C          63.1535   85.5273   15.9212 C.ar    1  UNL1       -0.0010
      5 C          63.0461   86.3101   17.1961 C.ar    1  UNL1        0.0108
      6 C          63.2021   87.8018   17.1757 C.ar    1  UNL1        0.0540
      7 CL         63.0947   88.5847   18.4507 Cl      1  UNL1       -0.0826
      8 C          63.5241   85.4532   13.3507 C.3     1  UNL1        0.1667
      9 O          62.8184   85.9304   12.1160 O.3     1  UNL1       -0.3466
     10 C          62.9258   85.1475   10.8410 C.3     1  UNL1        0.1739
     11 C          63.7388   83.8875   10.8007 C.3     1  UNL1        0.1692
     12 O          63.8461   83.1047    9.5257 O.3     1  UNL1       -0.3794
     13 C          64.4444   83.4105   12.0354 C.3     1  UNL1        0.1692
     14 O          65.2574   82.1506   11.9951 O.3     1  UNL1       -0.3794
     15 C          64.3371   84.1933   13.3104 C.3     1  UNL1        0.1709
     16 O          65.0427   83.7163   14.5451 O.3     1  UNL1       -0.3792
     17 H          63.3347   83.5474    8.8305 H       1  UNL1        0.2105
     18 H          65.2220   81.7714   11.1030 H       1  UNL1        0.2105
     19 H          64.8709   84.3325   15.2742 H       1  UNL1        0.2106
     20 C          62.2201   85.6245    9.6064 C.3     1  UNL1        0.1692
     21 O          62.9306   85.6147    8.2853 O.3     1  UNL1       -0.3794
     22 H          63.6644   86.2487    8.3081 H       1  UNL1        0.2105
     23 C          63.6214   90.0024   15.8598 C.3     1  UNL1        0.0535
     24 C          65.7637   91.9941   12.4402 C.ar    1  UNL1        0.0558
     25 C          66.4685   91.7869   13.7480 C.ar    1  UNL1        0.0147
     26 C          65.7544   91.1230   14.8878 C.ar    1  UNL1       -0.0027
     27 C          64.3355   90.6664   14.7199 C.ar    1  UNL1       -0.0177
     28 C          63.6307   90.8736   13.4122 C.ar    1  UNL1       -0.0027
     29 C          64.3448   91.5375   12.2723 C.ar    1  UNL1        0.0147
     30 N          67.3362   94.3487    9.7852 N.am    1  UNL1       -0.2125
     31 C          67.8170   93.0106    9.3071 C.2     1  UNL1        0.2532
     32 O          68.6774   92.7613    8.1040 O.2     1  UNL1       -0.2725
     33 C          67.2865   91.9658   10.2435 C.3     1  UNL1        0.1851
     34 N          66.4777   92.6581   11.3003 N.am    1  UNL1       -0.2336
     35 C          66.5085   94.1307   11.0170 C.2     1  UNL1        0.3171
     36 O          65.8305   95.1981   11.8239 O.2     1  UNL1       -0.2516
     37 C          66.6014   96.3306    8.2746 C.3     1  UNL1        0.0238
     38 C          67.6312   95.6722    9.1440 C.3     1  UNL1        0.1026
@<TRIPOS>BOND
     1    37    38    1
     2    38    30    1
     3    30    31   am
     4    31    32    2
     5    31    33    1
     6    33    34    1
     7    34    24    1
     8    24    25   ar
     9    25    26   ar
    10    26    27   ar
    11    27    23    1
    12    23     1    1
    13     1     2   ar
    14     2     3   ar
    15     8     3    1
    16     8     9    1
    17     9    10    1
    18    10    20    1
    19    20    21    1
    20    10    11    1
    21    11    12    1
    22    11    13    1
    23    13    14    1
    24    13    15    1
    25    15    16    1
    26     3     4   ar
    27     4     5   ar
    28     5     6   ar
    29     6     7    1
    30    27    28   ar
    31    28    29   ar
    32    34    35   am
    33    35    36    2
    34    35    30   am
    35    29    24   ar
    36     6     1   ar
    37    15     8    1
    38    21    22    1
    39    12    17    1
    40    14    18    1
    41    16    19    1
