@<TRIPOS>MOLECULE
*****
 47 53 0 0 0
SMALL
GASTEIGER

@<TRIPOS>ATOM
      1 C          60.3374   88.2049    8.6619 C.3     1  UNL1        0.1540
      2 O          57.9866   89.3208    7.1692 O.2     1  UNL1       -0.2526
      3 C          59.3809   89.6849    6.7528 C.2     1  UNL1        0.3043
      4 N          60.5563   89.1269    7.4992 N.am    1  UNL1       -0.2822
      5 N          59.5998   90.6069    5.5901 N.am    1  UNL1       -0.2641
      6 C          58.4244   91.1649    4.8438 C.3     1  UNL1        0.0966
      7 C          58.6433   92.0869    3.6810 C.3     1  UNL1        0.0415
      8 C          60.0376   92.4509    3.2647 C.3     1  UNL1        0.0806
      9 C          61.2130   91.8929    4.0110 C.3     1  UNL1        0.0415
     10 C          60.9941   90.9709    5.1737 C.3     1  UNL1        0.0966
     11 H          61.4714   89.3658    7.2259 H       1  UNL1        0.1514
     12 N          60.2565   93.3729    2.1020 N.am    1  UNL1       -0.2613
     13 C          60.5489   92.8097    0.7428 C.3     1  UNL1        0.1228
     14 C          60.7678   93.7318   -0.4199 C.ar    1  UNL1        0.0112
     15 C          61.0602   93.1686   -1.7791 C.ar    1  UNL1       -0.0014
     16 C          61.2791   94.0906   -2.9418 C.ar    1  UNL1       -0.0002
     17 C          61.2056   95.5759   -2.7454 C.ar    1  UNL1        0.0013
     18 C          60.9132   96.1392   -1.3862 C.ar    1  UNL1        0.0144
     19 C          60.6943   95.2171   -0.2235 C.ar    1  UNL1        0.0492
     20 N          60.4019   95.7803    1.1357 N.am    1  UNL1       -0.2684
     21 C          60.1830   94.8583    2.2984 C.2     1  UNL1        0.3079
     22 O          59.8907   95.4215    3.6575 O.2     1  UNL1       -0.2522
     23 H          60.3537   96.7551    1.2646 H       1  UNL1        0.1564
     24 C          60.1687   88.7660   10.0427 C.2     1  UNL1        0.2439
     25 O          58.8709   88.5845   10.7727 O.2     1  UNL1       -0.2731
     26 N          61.2978   89.5086   10.6936 N.am    1  UNL1       -0.2781
     27 C          62.5955   89.6901    9.9637 C.3     1  UNL1        0.0948
     28 C          63.7247   90.4327   10.6145 C.3     1  UNL1        0.0375
     29 C          63.5560   90.9939   11.9953 C.3     1  UNL1        0.0609
     30 C          62.2581   90.8124   12.7253 C.3     1  UNL1        0.0375
     31 C          61.1291   90.0698   12.0744 C.3     1  UNL1        0.0948
     32 N          64.6850   91.7365   12.6462 N.3     1  UNL1       -0.2738
     33 C          65.1492   91.3438   14.0174 C.3     1  UNL1        0.0720
     34 C          66.2783   92.0864   14.6684 C.3     1  UNL1        0.0174
     35 C          66.9432   93.2218   13.9481 C.3     1  UNL1        0.0029
     36 C          66.4790   93.6145   12.5768 C.3     1  UNL1        0.0174
     37 C          65.3499   92.8719   11.9259 C.3     1  UNL1        0.0720
     38 C          60.2872   86.7216    8.4438 C.3     1  UNL1        0.0514
     39 C          61.3935   85.8498    8.9595 C.2     1  UNL1       -0.0375
     40 C          62.3816   85.2483    8.0046 C.2     1  UNL1       -0.0065
     41 C          63.4880   84.3765    8.5203 C.2     1  UNL1        0.0200
     42 C          63.6063   84.1063    9.9910 C.2     1  UNL1        0.1007
     43 N          64.5841   83.2934   10.7867 N.2     1  UNL1       -0.1482
     44 N          64.2004   83.3924   12.2334 N.2     1  UNL1       -0.1467
     45 C          62.9855   84.2666   12.3318 C.2     1  UNL1        0.1197
     46 C          62.6183   84.7078   10.9460 C.2     1  UNL1        0.0222
     47 C          61.5119   85.5796   10.4303 C.3     1  UNL1        0.0516
@<TRIPOS>BOND
     1     2     3    2
     2     3     4   am
     3     4     1    1
     4     1    38    1
     5    38    39    1
     6    39    40    2
     7    40    41    1
     8    41    42    2
     9    42    43    1
    10    43    44    2
    11    44    45    1
    12    45    46    2
    13    46    47    1
    14     1    24    1
    15    24    25    2
    16    24    26   am
    17    26    27    1
    18    27    28    1
    19    28    29    1
    20    29    32    1
    21    32    33    1
    22    33    34    1
    23    34    35    1
    24    35    36    1
    25    36    37    1
    26    29    30    1
    27    30    31    1
    28     3     5   am
    29     5     6    1
    30     6     7    1
    31     7     8    1
    32     8    12    1
    33    12    13    1
    34    13    14    1
    35    14    15   ar
    36    15    16   ar
    37    16    17   ar
    38    17    18   ar
    39    18    19   ar
    40    19    20    1
    41    20    21   am
    42    21    22    2
    43     8     9    1
    44     9    10    1
    45    47    39    1
    46    31    26    1
    47    10     5    1
    48    46    42    1
    49    37    32    1
    50    21    12   am
    51    19    14   ar
    52     4    11    1
    53    20    23    1
@<TRIPOS>MOLECULE
*****
 47 53 0 0 0
SMALL
GASTEIGER

@<TRIPOS>ATOM
      1 C          59.5771   88.7061    7.5710 C.3     1  UNL1        0.1540
      2 O          59.6029   88.6899   10.5709 O.2     1  UNL1       -0.2526
      3 C          60.7050   89.3709    9.8150 C.2     1  UNL1        0.3043
      4 N          60.6921   89.3790    8.3151 N.am    1  UNL1       -0.2822
      5 N          61.8201   90.0439   10.5591 N.am    1  UNL1       -0.2641
      6 C          61.8330   90.0358   12.0590 C.3     1  UNL1        0.0966
      7 C          62.9482   90.7088   12.8031 C.3     1  UNL1        0.0415
      8 C          64.0504   91.3899   12.0472 C.3     1  UNL1        0.0806
      9 C          64.0374   91.3980   10.5473 C.3     1  UNL1        0.0415
     10 C          62.9224   90.7250    9.8032 C.3     1  UNL1        0.0966
     11 H          61.4155   89.8260    7.8190 H       1  UNL1        0.1514
     12 N          65.1654   92.0628   12.7913 N.am    1  UNL1       -0.2613
     13 C          65.7392   91.4240   14.0212 C.3     1  UNL1        0.1228
     14 C          66.8543   92.0970   14.7653 C.ar    1  UNL1        0.0112
     15 C          67.4280   91.4582   15.9953 C.ar    1  UNL1       -0.0014
     16 C          68.5431   92.1312   16.7393 C.ar    1  UNL1       -0.0002
     17 C          69.0845   93.4430   16.2535 C.ar    1  UNL1        0.0013
     18 C          68.5108   94.0819   15.0235 C.ar    1  UNL1        0.0144
     19 C          67.3956   93.4088   14.2795 C.ar    1  UNL1        0.0492
     20 N          66.8219   94.0477   13.0495 N.am    1  UNL1       -0.2684
     21 C          65.7068   93.3747   12.3055 C.2     1  UNL1        0.3079
     22 O          65.1331   94.0135   11.0755 O.2     1  UNL1       -0.2522
     23 H          67.1772   94.9086   12.7306 H       1  UNL1        0.1564
     24 C          58.6549   89.5159    6.7087 C.2     1  UNL1        0.2439
     25 O          57.1697   89.4051    6.8882 O.2     1  UNL1       -0.2731
     26 N          59.2177   90.4365    5.6668 N.am    1  UNL1       -0.2781
     27 C          60.7028   90.5473    5.4872 C.3     1  UNL1        0.0948
     28 C          61.2657   91.4679    4.4453 C.3     1  UNL1        0.0375
     29 C          60.3435   92.2778    3.5829 C.3     1  UNL1        0.0609
     30 C          58.8584   92.1670    3.7625 C.3     1  UNL1        0.0375
     31 C          58.2955   91.2464    4.8044 C.3     1  UNL1        0.0948
     32 N          60.9064   93.1984    2.5410 N.3     1  UNL1       -0.2738
     33 C          62.2050   92.8651    1.8683 C.3     1  UNL1        0.0720
     34 C          62.7679   93.7857    0.8264 C.3     1  UNL1        0.0174
     35 C          62.0322   95.0396    0.4571 C.3     1  UNL1        0.0029
     36 C          60.7335   95.3729    1.1298 C.3     1  UNL1        0.0174
     37 C          60.1707   94.4523    2.1717 C.3     1  UNL1        0.0720
     38 C          59.3841   87.2232    7.6893 C.3     1  UNL1        0.0514
     39 C          60.5228   86.3515    8.1293 C.2     1  UNL1       -0.0375
     40 C          61.4015   85.6930    7.1074 C.2     1  UNL1       -0.0065
     41 C          62.5402   84.8212    7.5474 C.2     1  UNL1        0.0200
     42 C          62.8001   84.6080    9.0092 C.2     1  UNL1        0.1007
     43 N          63.8395   83.8087    9.7377 N.2     1  UNL1       -0.1482
     44 N          63.6033   83.9732   11.2098 N.2     1  UNL1       -0.1467
     45 C          62.4177   84.8741   11.3911 C.2     1  UNL1        0.1197
     46 C          61.9213   85.2665   10.0311 C.2     1  UNL1        0.0222
     47 C          60.7827   86.1382    9.5911 C.3     1  UNL1        0.0516
@<TRIPOS>BOND
     1     2     3    2
     2     3     4   am
     3     4     1    1
     4     1    38    1
     5    38    39    1
     6    39    40    2
     7    40    41    1
     8    41    42    2
     9    42    43    1
    10    43    44    2
    11    44    45    1
    12    45    46    2
    13    46    47    1
    14     1    24    1
    15    24    25    2
    16    24    26   am
    17    26    27    1
    18    27    28    1
    19    28    29    1
    20    29    32    1
    21    32    33    1
    22    33    34    1
    23    34    35    1
    24    35    36    1
    25    36    37    1
    26    29    30    1
    27    30    31    1
    28     3     5   am
    29     5     6    1
    30     6     7    1
    31     7     8    1
    32     8    12    1
    33    12    13    1
    34    13    14    1
    35    14    15   ar
    36    15    16   ar
    37    16    17   ar
    38    17    18   ar
    39    18    19   ar
    40    19    20    1
    41    20    21   am
    42    21    22    2
    43     8     9    1
    44     9    10    1
    45    47    39    1
    46    31    26    1
    47    10     5    1
    48    46    42    1
    49    37    32    1
    50    21    12   am
    51    19    14   ar
    52     4    11    1
    53    20    23    1
@<TRIPOS>MOLECULE
*****
 47 53 0 0 0
SMALL
GASTEIGER

@<TRIPOS>ATOM
      1 C          60.0969   89.2974    7.7223 C.3     1  UNL1        0.1540
      2 O          58.3562   90.9950    5.9649 O.2     1  UNL1       -0.2526
      3 C          59.8080   90.8149    5.6334 C.2     1  UNL1        0.3043
      4 N          60.6783   89.9661    6.5121 N.am    1  UNL1       -0.2822
      5 N          60.3894   91.4836    4.4232 N.am    1  UNL1       -0.2641
      6 C          59.5191   92.3324    3.5445 C.3     1  UNL1        0.0966
      7 C          60.1006   93.0012    2.3342 C.3     1  UNL1        0.0415
      8 C          61.5523   92.8211    2.0026 C.3     1  UNL1        0.0806
      9 C          62.4226   91.9723    2.8813 C.3     1  UNL1        0.0415
     10 C          61.8412   91.3036    4.0916 C.3     1  UNL1        0.0966
     11 H          61.6311   89.8479    6.2945 H       1  UNL1        0.1514
     12 N          62.1337   93.4898    0.7924 N.am    1  UNL1       -0.2613
     13 C          63.3285   94.3860    0.9320 C.3     1  UNL1        0.1228
     14 C          63.9099   95.0547   -0.2783 C.ar    1  UNL1        0.0112
     15 C          65.1046   95.9509   -0.1387 C.ar    1  UNL1       -0.0014
     16 C          65.6861   96.6196   -1.3490 C.ar    1  UNL1       -0.0002
     17 C          65.0727   96.3921   -2.6989 C.ar    1  UNL1        0.0013
     18 C          63.8780   95.4960   -2.8385 C.ar    1  UNL1        0.0144
     19 C          63.2966   94.8272   -1.6282 C.ar    1  UNL1        0.0492
     20 N          62.1018   93.9311   -1.7677 N.am    1  UNL1       -0.2684
     21 C          61.5204   93.2624   -0.5575 C.2     1  UNL1        0.3079
     22 O          60.3257   92.3662   -0.6971 O.2     1  UNL1       -0.2522
     23 H          61.6993   93.7818   -2.6537 H       1  UNL1        0.1564
     24 C          59.9841   87.8024    7.7717 C.2     1  UNL1        0.2439
     25 O          59.0809   87.0864    6.8116 O.2     1  UNL1       -0.2731
     26 N          60.7744   87.0236    8.7810 N.am    1  UNL1       -0.2781
     27 C          61.6775   87.7397    9.7409 C.3     1  UNL1        0.0948
     28 C          62.4679   86.9608   10.7503 C.3     1  UNL1        0.0375
     29 C          62.3551   85.4659   10.7996 C.3     1  UNL1        0.0609
     30 C          61.4519   84.7498    9.8396 C.3     1  UNL1        0.0375
     31 C          60.6616   85.5286    8.8303 C.3     1  UNL1        0.0948
     32 N          63.1454   84.6870   11.8089 N.3     1  UNL1       -0.2738
     33 C          63.4732   85.2986   13.1387 C.3     1  UNL1        0.0720
     34 C          64.2636   84.5197   14.1481 C.3     1  UNL1        0.0174
     35 C          64.7261   83.1293   13.8276 C.3     1  UNL1        0.0029
     36 C          64.3983   82.5177   12.4977 C.3     1  UNL1        0.0174
     37 C          63.6080   83.2966   11.4884 C.3     1  UNL1        0.0720
     38 C          59.6282   90.1236    8.8833 C.3     1  UNL1        0.0514
     39 C          60.4435   90.1803   10.1411 C.2     1  UNL1       -0.0375
     40 C          59.8705   89.6698   11.4299 C.2     1  UNL1       -0.0065
     41 C          60.6859   89.7265   12.6877 C.2     1  UNL1        0.0200
     42 C          62.0741   90.2938   12.6567 C.2     1  UNL1        0.1007
     43 N          63.1070   90.4786   13.7286 N.2     1  UNL1       -0.1482
     44 N          64.3183   91.1034   13.1022 N.2     1  UNL1       -0.1467
     45 C          64.0340   91.3047   11.6432 C.2     1  UNL1        0.1197
     46 C          62.6470   90.8043   11.3679 C.2     1  UNL1        0.0222
     47 C          61.8318   90.7476   10.1101 C.3     1  UNL1        0.0516
@<TRIPOS>BOND
     1     2     3    2
     2     3     4   am
     3     4     1    1
     4     1    38    1
     5    38    39    1
     6    39    40    2
     7    40    41    1
     8    41    42    2
     9    42    43    1
    10    43    44    2
    11    44    45    1
    12    45    46    2
    13    46    47    1
    14     1    24    1
    15    24    25    2
    16    24    26   am
    17    26    27    1
    18    27    28    1
    19    28    29    1
    20    29    32    1
    21    32    33    1
    22    33    34    1
    23    34    35    1
    24    35    36    1
    25    36    37    1
    26    29    30    1
    27    30    31    1
    28     3     5   am
    29     5     6    1
    30     6     7    1
    31     7     8    1
    32     8    12    1
    33    12    13    1
    34    13    14    1
    35    14    15   ar
    36    15    16   ar
    37    16    17   ar
    38    17    18   ar
    39    18    19   ar
    40    19    20    1
    41    20    21   am
    42    21    22    2
    43     8     9    1
    44     9    10    1
    45    47    39    1
    46    31    26    1
    47    10     5    1
    48    46    42    1
    49    37    32    1
    50    21    12   am
    51    19    14   ar
    52     4    11    1
    53    20    23    1
@<TRIPOS>MOLECULE
*****
 47 53 0 0 0
SMALL
GASTEIGER

@<TRIPOS>ATOM
      1 C          60.5056   89.2873    8.3524 C.3     1  UNL1        0.1540
      2 O          58.3204   90.4878    6.6840 O.2     1  UNL1       -0.2526
      3 C          59.7450   90.5632    6.2208 C.2     1  UNL1        0.3043
      4 N          60.8377   89.9630    7.0551 N.am    1  UNL1       -0.2822
      5 N          60.0771   91.2389    4.9235 N.am    1  UNL1       -0.2641
      6 C          58.9845   91.8391    4.0892 C.3     1  UNL1        0.0966
      7 C          59.3166   92.5147    2.7918 C.3     1  UNL1        0.0415
      8 C          60.7413   92.5902    2.3287 C.3     1  UNL1        0.0806
      9 C          61.8339   91.9900    3.1629 C.3     1  UNL1        0.0415
     10 C          61.5018   91.3143    4.4603 C.3     1  UNL1        0.0966
     11 H          61.7727   90.0125    6.7511 H       1  UNL1        0.1514
     12 N          61.0733   93.2658    1.0313 N.am    1  UNL1       -0.2613
     13 C          60.2036   93.0489   -0.1714 C.3     1  UNL1        0.1228
     14 C          60.5357   93.7246   -1.4688 C.ar    1  UNL1        0.0112
     15 C          59.6660   93.5078   -2.6715 C.ar    1  UNL1       -0.0014
     16 C          59.9980   94.1834   -3.9689 C.ar    1  UNL1       -0.0002
     17 C          61.1999   95.0760   -4.0636 C.ar    1  UNL1        0.0013
     18 C          62.0696   95.2929   -2.8609 C.ar    1  UNL1        0.0144
     19 C          61.7375   94.6172   -1.5634 C.ar    1  UNL1        0.0492
     20 N          62.6073   94.8341   -0.3607 N.am    1  UNL1       -0.2684
     21 C          62.2752   94.1584    0.9366 C.2     1  UNL1        0.3079
     22 O          63.1449   94.3753    2.1393 O.2     1  UNL1       -0.2522
     23 H          63.3961   95.4199   -0.4229 H       1  UNL1        0.1564
     24 C          60.3513   87.7962    8.4035 C.2     1  UNL1        0.2439
     25 O          59.4873   87.0967    7.3964 O.2     1  UNL1       -0.2731
     26 N          61.0609   87.0045    9.4616 N.am    1  UNL1       -0.2781
     27 C          61.9249   87.7041   10.4686 C.3     1  UNL1        0.0948
     28 C          62.6346   86.9124   11.5268 C.3     1  UNL1        0.0375
     29 C          62.4802   85.4212   11.5779 C.3     1  UNL1        0.0609
     30 C          61.6162   84.7217   10.5708 C.3     1  UNL1        0.0375
     31 C          60.9066   85.5134    9.5127 C.3     1  UNL1        0.0948
     32 N          63.1899   84.6296   12.6360 N.3     1  UNL1       -0.2738
     33 C          63.8452   85.3341   13.7867 C.3     1  UNL1        0.0720
     34 C          64.5549   84.5425   14.8449 C.3     1  UNL1        0.0174
     35 C          64.6092   83.0463   14.7524 C.3     1  UNL1        0.0029
     36 C          63.9538   82.3418   13.6016 C.3     1  UNL1        0.0174
     37 C          63.2442   83.1334   12.5435 C.3     1  UNL1        0.0720
     38 C          60.3278   90.1029    9.5988 C.3     1  UNL1        0.0514
     39 C          61.5244   90.5053   10.4088 C.2     1  UNL1       -0.0375
     40 C          62.6685   91.2198    9.7526 C.2     1  UNL1       -0.0065
     41 C          63.8651   91.6222   10.5627 C.2     1  UNL1        0.0200
     42 C          63.9177   91.3101   12.0289 C.2     1  UNL1        0.1007
     43 N          64.9572   91.5804   13.0760 N.2     1  UNL1       -0.1482
     44 N          64.4556   91.0329   14.3794 N.2     1  UNL1       -0.1467
     45 C          63.1061   90.4242   14.1377 C.2     1  UNL1        0.1197
     46 C          62.7737   90.5955   12.6851 C.2     1  UNL1        0.0222
     47 C          61.5771   90.1931   11.8751 C.3     1  UNL1        0.0516
@<TRIPOS>BOND
     1     2     3    2
     2     3     4   am
     3     4     1    1
     4     1    38    1
     5    38    39    1
     6    39    40    2
     7    40    41    1
     8    41    42    2
     9    42    43    1
    10    43    44    2
    11    44    45    1
    12    45    46    2
    13    46    47    1
    14     1    24    1
    15    24    25    2
    16    24    26   am
    17    26    27    1
    18    27    28    1
    19    28    29    1
    20    29    32    1
    21    32    33    1
    22    33    34    1
    23    34    35    1
    24    35    36    1
    25    36    37    1
    26    29    30    1
    27    30    31    1
    28     3     5   am
    29     5     6    1
    30     6     7    1
    31     7     8    1
    32     8    12    1
    33    12    13    1
    34    13    14    1
    35    14    15   ar
    36    15    16   ar
    37    16    17   ar
    38    17    18   ar
    39    18    19   ar
    40    19    20    1
    41    20    21   am
    42    21    22    2
    43     8     9    1
    44     9    10    1
    45    47    39    1
    46    31    26    1
    47    10     5    1
    48    46    42    1
    49    37    32    1
    50    21    12   am
    51    19    14   ar
    52     4    11    1
    53    20    23    1
