@<TRIPOS>MOLECULE
*****
 16 17 0 0 0
SMALL
GASTEIGER

@<TRIPOS>ATOM
      1 C          66.0280   95.5206   11.1670 C.3     1  UNL1        0.0331
      2 C          66.8308   94.4618   10.4710 C.ar    1  UNL1        0.0036
      3 C          67.3865   94.7205    9.1020 C.ar    1  UNL1        0.1359
      4 F          67.1394   96.0381    8.4289 F       1  UNL1       -0.2045
      5 C          68.1893   93.6618    8.4060 C.ar    1  UNL1        0.0293
      6 C          68.4364   92.3442    9.0789 C.ar    1  UNL1        0.0020
      7 C          67.8808   92.0854   10.4479 C.ar    1  UNL1       -0.0025
      8 C          67.0779   93.1442   11.1439 C.ar    1  UNL1        0.0018
      9 C          66.5222   92.8854   12.5130 C.3     1  UNL1        0.1732
     10 C          65.2436   92.1654   12.8239 C.3     1  UNL1        0.2371
     11 O          65.0787   92.1362   14.3146 O.2     1  UNL1       -0.4477
     12 C          66.2556   92.8381   14.9249 C.2     1  UNL1        0.2770
     13 N          66.4977   93.0413   16.3912 N.pl3   1  UNL1       -0.3133
     14 N          67.1476   93.3011   13.8115 N.2     1  UNL1       -0.2182
     15 H          65.8504   92.6988   17.0492 H       1  UNL1        0.1466
     16 H          67.3040   93.5172   16.6957 H       1  UNL1        0.1466
@<TRIPOS>BOND
     1     1     2    1
     2     2     3   ar
     3     3     4    1
     4     3     5   ar
     5     5     6   ar
     6     6     7   ar
     7     7     8   ar
     8     9     8    1
     9     9    10    1
    10    10    11    1
    11    11    12    1
    12    12    13    1
    13    12    14    2
    14     8     2   ar
    15    14     9    1
    16    13    15    1
    17    13    16    1
@<TRIPOS>MOLECULE
*****
 16 17 0 0 0
SMALL
GASTEIGER

@<TRIPOS>ATOM
      1 C          64.0253   83.3877    9.7220 C.3     1  UNL1        0.0331
      2 C          63.1152   84.5605    9.9372 C.ar    1  UNL1        0.0036
      3 C          62.7710   85.4631    8.7898 C.ar    1  UNL1        0.1359
      4 F          63.3368   85.1930    7.4271 F       1  UNL1       -0.2045
      5 C          61.8609   86.6359    9.0050 C.ar    1  UNL1        0.0293
      6 C          61.2951   86.9061   10.3676 C.ar    1  UNL1        0.0020
      7 C          61.6393   86.0034   11.5150 C.ar    1  UNL1       -0.0025
      8 C          62.5494   84.8306   11.2998 C.ar    1  UNL1        0.0018
      9 C          62.8936   83.9279   12.4474 C.3     1  UNL1        0.1732
     10 C          63.8268   84.2531   13.5758 C.3     1  UNL1        0.2371
     11 O          63.8750   83.0678   14.4937 O.2     1  UNL1       -0.4477
     12 C          62.9715   82.0099   13.9326 C.2     1  UNL1        0.2770
     13 N          62.7189   80.6579   14.5311 N.pl3   1  UNL1       -0.3133
     14 N          62.3650   82.5416   12.6679 N.2     1  UNL1       -0.2182
     15 H          63.1664   80.3991   15.3689 H       1  UNL1        0.1466
     16 H          62.1055   80.0294   14.0862 H       1  UNL1        0.1466
@<TRIPOS>BOND
     1     1     2    1
     2     2     3   ar
     3     3     4    1
     4     3     5   ar
     5     5     6   ar
     6     6     7   ar
     7     7     8   ar
     8     9     8    1
     9     9    10    1
    10    10    11    1
    11    11    12    1
    12    12    13    1
    13    12    14    2
    14     8     2   ar
    15    14     9    1
    16    13    15    1
    17    13    16    1
@<TRIPOS>MOLECULE
*****
 16 17 0 0 0
SMALL
GASTEIGER

@<TRIPOS>ATOM
      1 C          63.0905   85.0001    8.0899 C.3     1  UNL1        0.0331
      2 C          62.9577   84.8716    9.5785 C.ar    1  UNL1        0.0036
      3 C          63.6954   83.7873   10.3065 C.ar    1  UNL1        0.1359
      4 F          64.5660   82.8315    9.5459 F       1  UNL1       -0.2045
      5 C          63.5626   83.6589   11.7950 C.ar    1  UNL1        0.0293
      6 C          62.6920   84.6147   12.5556 C.ar    1  UNL1        0.0020
      7 C          61.9542   85.6990   11.8276 C.ar    1  UNL1       -0.0025
      8 C          62.0871   85.8274   10.3390 C.ar    1  UNL1        0.0018
      9 C          61.3493   86.9118    9.6110 C.3     1  UNL1        0.1732
     10 C          61.6000   88.3854    9.7352 C.3     1  UNL1        0.2371
     11 O          60.6370   89.0972    8.8319 O.2     1  UNL1       -0.4477
     12 C          59.7910   88.0634    8.1495 C.2     1  UNL1        0.2770
     13 N          58.6969   88.3330    7.1594 N.pl3   1  UNL1       -0.3133
     14 N          60.2312   86.7128    8.6310 N.2     1  UNL1       -0.2182
     15 H          58.4803   89.2591    6.9051 H       1  UNL1        0.1466
     16 H          58.1953   87.5838    6.7639 H       1  UNL1        0.1466
@<TRIPOS>BOND
     1     1     2    1
     2     2     3   ar
     3     3     4    1
     4     3     5   ar
     5     5     6   ar
     6     6     7   ar
     7     7     8   ar
     8     9     8    1
     9     9    10    1
    10    10    11    1
    11    11    12    1
    12    12    13    1
    13    12    14    2
    14     8     2   ar
    15    14     9    1
    16    13    15    1
    17    13    16    1
@<TRIPOS>MOLECULE
*****
 16 17 0 0 0
SMALL
GASTEIGER

@<TRIPOS>ATOM
      1 C          64.1449   83.4883   11.1253 C.3     1  UNL1        0.0331
      2 C          63.3755   82.7377   12.1716 C.ar    1  UNL1        0.0036
      3 C          62.8906   81.3461   11.8920 C.ar    1  UNL1        0.1359
      4 F          63.1751   80.7050   10.5660 F       1  UNL1       -0.2045
      5 C          62.1213   80.5955   12.9383 C.ar    1  UNL1        0.0293
      6 C          61.8368   81.2366   14.2642 C.ar    1  UNL1        0.0020
      7 C          62.3217   82.6282   14.5438 C.ar    1  UNL1       -0.0025
      8 C          63.0911   83.3788   13.4975 C.ar    1  UNL1        0.0018
      9 C          63.5760   84.7704   13.7772 C.3     1  UNL1        0.1732
     10 C          64.6107   85.1562   14.7923 C.3     1  UNL1        0.2371
     11 O          64.7855   86.6449   14.7333 O.2     1  UNL1       -0.4477
     12 C          63.8587   87.1791   13.6818 C.2     1  UNL1        0.2770
     13 N          63.7063   88.6190   13.2899 N.pl3   1  UNL1       -0.3133
     14 N          63.1112   86.0206   13.0909 N.2     1  UNL1       -0.2182
     15 H          64.2444   89.3108   13.7383 H       1  UNL1        0.1466
     16 H          63.0681   88.8722   12.5843 H       1  UNL1        0.1466
@<TRIPOS>BOND
     1     1     2    1
     2     2     3   ar
     3     3     4    1
     4     3     5   ar
     5     5     6   ar
     6     6     7   ar
     7     7     8   ar
     8     9     8    1
     9     9    10    1
    10    10    11    1
    11    11    12    1
    12    12    13    1
    13    12    14    2
    14     8     2   ar
    15    14     9    1
    16    13    15    1
    17    13    16    1
@<TRIPOS>MOLECULE
*****
 16 17 0 0 0
SMALL
GASTEIGER

@<TRIPOS>ATOM
      1 C          62.5251   82.4322   14.6751 C.3     1  UNL1        0.0331
      2 C          62.9883   82.3399   13.2514 C.ar    1  UNL1        0.0036
      3 C          62.6298   81.1425   12.4222 C.ar    1  UNL1        0.1359
      4 F          61.8081   80.0373   13.0167 F       1  UNL1       -0.2045
      5 C          63.0931   81.0502   10.9986 C.ar    1  UNL1        0.0293
      6 C          63.9148   82.1553   10.4041 C.ar    1  UNL1        0.0020
      7 C          64.2733   83.3527   11.2333 C.ar    1  UNL1       -0.0025
      8 C          63.8100   83.4450   12.6570 C.ar    1  UNL1        0.0018
      9 C          64.1686   84.6425   13.4862 C.3     1  UNL1        0.1732
     10 C          65.2455   84.7028   14.5285 C.3     1  UNL1        0.2371
     11 O          65.2556   86.0875   15.1051 O.2     1  UNL1       -0.4477
     12 C          64.1848   86.8831   14.4191 C.2     1  UNL1        0.2770
     13 N          63.8455   88.3195   14.6866 N.pl3   1  UNL1       -0.3133
     14 N          63.5130   85.9900   13.4185 N.2     1  UNL1       -0.2182
     15 H          64.3463   88.8251   15.3669 H       1  UNL1        0.1466
     16 H          63.1220   88.7566   14.1820 H       1  UNL1        0.1466
@<TRIPOS>BOND
     1     1     2    1
     2     2     3   ar
     3     3     4    1
     4     3     5   ar
     5     5     6   ar
     6     6     7   ar
     7     7     8   ar
     8     9     8    1
     9     9    10    1
    10    10    11    1
    11    11    12    1
    12    12    13    1
    13    12    14    2
    14     8     2   ar
    15    14     9    1
    16    13    15    1
    17    13    16    1
@<TRIPOS>MOLECULE
*****
 16 17 0 0 0
SMALL
GASTEIGER

@<TRIPOS>ATOM
      1 C          67.7372   92.0656   10.4413 C.3     1  UNL1        0.0331
      2 C          67.2818   93.4711   10.1824 C.ar    1  UNL1        0.0036
      3 C          67.5829   94.1269    8.8674 C.ar    1  UNL1        0.1359
      4 F          68.3394   93.3771    7.8112 F       1  UNL1       -0.2045
      5 C          67.1275   95.5325    8.6085 C.ar    1  UNL1        0.0293
      6 C          66.3710   96.2823    9.6647 C.ar    1  UNL1        0.0020
      7 C          66.0700   95.6265   10.9797 C.ar    1  UNL1       -0.0025
      8 C          66.5254   94.2210   11.2386 C.ar    1  UNL1        0.0018
      9 C          66.2243   93.5652   12.5537 C.3     1  UNL1        0.1732
     10 C          65.2634   92.4351   12.7758 C.3     1  UNL1        0.2371
     11 O          65.2765   92.0959   14.2369 O.2     1  UNL1       -0.4477
     12 C          66.2456   93.0165   14.9178 C.2     1  UNL1        0.2770
     13 N          66.5716   93.0271   16.3819 N.pl3   1  UNL1       -0.3133
     14 N          66.8313   93.9245   13.8775 N.2     1  UNL1       -0.2182
     15 H          66.1324   92.3882   16.9887 H       1  UNL1        0.1466
     16 H          67.2248   93.6729   16.7361 H       1  UNL1        0.1466
@<TRIPOS>BOND
     1     1     2    1
     2     2     3   ar
     3     3     4    1
     4     3     5   ar
     5     5     6   ar
     6     6     7   ar
     7     7     8   ar
     8     9     8    1
     9     9    10    1
    10    10    11    1
    11    11    12    1
    12    12    13    1
    13    12    14    2
    14     8     2   ar
    15    14     9    1
    16    13    15    1
    17    13    16    1
@<TRIPOS>MOLECULE
*****
 16 17 0 0 0
SMALL
GASTEIGER

@<TRIPOS>ATOM
      1 C          63.6206   91.6152   10.4301 C.3     1  UNL1        0.0331
      2 C          64.0745   91.3232   11.8297 C.ar    1  UNL1        0.0036
      3 C          63.3072   90.3549   12.6803 C.ar    1  UNL1        0.1359
      4 F          62.0860   89.6786   12.1315 F       1  UNL1       -0.2045
      5 C          63.7612   90.0629   14.0799 C.ar    1  UNL1        0.0293
      6 C          64.9824   90.7392   14.6287 C.ar    1  UNL1        0.0020
      7 C          65.7496   91.7075   13.7780 C.ar    1  UNL1       -0.0025
      8 C          65.2957   91.9995   12.3785 C.ar    1  UNL1        0.0018
      9 C          66.0630   92.9678   11.5278 C.3     1  UNL1        0.1732
     10 C          67.2044   92.6280   10.6158 C.3     1  UNL1        0.2371
     11 O          67.6704   93.8961    9.9642 O.2     1  UNL1       -0.4477
     12 C          66.8171   95.0197   10.4734 C.2     1  UNL1        0.2770
     13 N          66.9362   96.4635   10.0846 N.pl3   1  UNL1       -0.3133
     14 N          65.8236   94.4460   11.4398 N.2     1  UNL1       -0.2182
     15 H          67.6241   96.7442    9.4386 H       1  UNL1        0.1466
     16 H          66.3266   97.1305   10.4754 H       1  UNL1        0.1466
@<TRIPOS>BOND
     1     1     2    1
     2     2     3   ar
     3     3     4    1
     4     3     5   ar
     5     5     6   ar
     6     6     7   ar
     7     7     8   ar
     8     9     8    1
     9     9    10    1
    10    10    11    1
    11    11    12    1
    12    12    13    1
    13    12    14    2
    14     8     2   ar
    15    14     9    1
    16    13    15    1
    17    13    16    1
@<TRIPOS>MOLECULE
*****
 16 17 0 0 0
SMALL
GASTEIGER

@<TRIPOS>ATOM
      1 C          63.9942   88.2245   13.9115 C.3     1  UNL1        0.0331
      2 C          63.5324   88.9893   12.7066 C.ar    1  UNL1        0.0036
      3 C          62.7933   88.2840   11.6084 C.ar    1  UNL1        0.1359
      4 F          62.5158   86.8137   11.7151 F       1  UNL1       -0.2045
      5 C          62.3315   89.0489   10.4035 C.ar    1  UNL1        0.0293
      6 C          62.6089   90.5191   10.2968 C.ar    1  UNL1        0.0020
      7 C          63.3481   91.2244   11.3950 C.ar    1  UNL1       -0.0025
      8 C          63.8098   90.4596   12.5999 C.ar    1  UNL1        0.0018
      9 C          64.5490   91.1650   13.6981 C.3     1  UNL1        0.1732
     10 C          65.9804   91.6112   13.6524 C.3     1  UNL1        0.2371
     11 O          66.3026   92.2700   14.9608 O.2     1  UNL1       -0.4477
     12 C          65.0703   92.2310   15.8153 C.2     1  UNL1        0.2770
     13 N          64.9440   92.7788   17.2060 N.pl3   1  UNL1       -0.3133
     14 N          63.9866   91.5481   15.0349 N.2     1  UNL1       -0.2182
     15 H          65.7162   93.2121   17.6364 H       1  UNL1        0.1466
     16 H          64.0890   92.7049   17.6884 H       1  UNL1        0.1466
@<TRIPOS>BOND
     1     1     2    1
     2     2     3   ar
     3     3     4    1
     4     3     5   ar
     5     5     6   ar
     6     6     7   ar
     7     7     8   ar
     8     9     8    1
     9     9    10    1
    10    10    11    1
    11    11    12    1
    12    12    13    1
    13    12    14    2
    14     8     2   ar
    15    14     9    1
    16    13    15    1
    17    13    16    1
@<TRIPOS>MOLECULE
*****
 16 17 0 0 0
SMALL
GASTEIGER

@<TRIPOS>ATOM
      1 C          61.6193   86.2707   11.7186 C.3     1  UNL1        0.0331
      2 C          62.5332   85.2104   11.1796 C.ar    1  UNL1        0.0036
      3 C          62.7414   85.0811    9.6998 C.ar    1  UNL1        0.1359
      4 F          62.0356   86.0120    8.7589 F       1  UNL1       -0.2045
      5 C          63.6554   84.0208    9.1608 C.ar    1  UNL1        0.0293
      6 C          64.3612   83.0899   10.1016 C.ar    1  UNL1        0.0020
      7 C          64.1530   83.2192   11.5814 C.ar    1  UNL1       -0.0025
      8 C          63.2390   84.2795   12.1204 C.ar    1  UNL1        0.0018
      9 C          63.0309   84.4088   13.6003 C.3     1  UNL1        0.1732
     10 C          62.3420   83.4118   14.4843 C.3     1  UNL1        0.2371
     11 O          62.3605   83.9447   15.8863 O.2     1  UNL1       -0.4477
     12 C          63.0608   85.2711   15.8689 C.2     1  UNL1        0.2770
     13 N          63.3041   86.1554   17.0558 N.pl3   1  UNL1       -0.3133
     14 N          63.4751   85.5579   14.4561 N.2     1  UNL1       -0.2182
     15 H          62.9923   85.8788   17.9478 H       1  UNL1        0.1466
     16 H          63.7755   87.0123   16.9429 H       1  UNL1        0.1466
@<TRIPOS>BOND
     1     1     2    1
     2     2     3   ar
     3     3     4    1
     4     3     5   ar
     5     5     6   ar
     6     6     7   ar
     7     7     8   ar
     8     9     8    1
     9     9    10    1
    10    10    11    1
    11    11    12    1
    12    12    13    1
    13    12    14    2
    14     8     2   ar
    15    14     9    1
    16    13    15    1
    17    13    16    1
