@<TRIPOS>MOLECULE
*****
 40 43 0 0 0
SMALL
GASTEIGER

@<TRIPOS>ATOM
      1 C          62.4422   84.5453   13.1192 C.3     1  UNL1        0.1678
      2 C          62.4837   85.4081   11.8929 C.2     1  UNL1        0.2492
      3 O          62.3099   84.8826   11.3193 O.2     1  UNL1       -0.2727
      4 N          62.7775   86.8756   11.7915 N.am    1  UNL1       -0.2517
      5 C          63.1023   87.8426   12.8912 C.ar    1  UNL1        0.0679
      6 C          63.3297   89.2252   12.3558 C.ar    1  UNL1        0.0169
      7 C          63.6683   90.3462   13.2931 C.ar    1  UNL1        0.0116
      8 C          63.7795   90.0846   14.7660 C.ar    1  UNL1        0.0698
      9 C          63.5522   88.7020   15.3014 C.ar    1  UNL1        0.0264
     10 C          63.2136   87.5810   14.3640 C.ar    1  UNL1        0.0682
     11 N          63.0275   86.2877   15.1008 N.am    1  UNL1       -0.2570
     12 C          63.2087   86.3543   16.5883 C.2     1  UNL1        0.2299
     13 C          63.5537   87.6585   17.2443 C.3     1  UNL1        0.0952
     14 O          63.0448   85.1168   17.4200 O.2     1  UNL1       -0.2745
     15 C          62.6842   84.9367   14.5469 C.3     1  UNL1        0.1066
     16 C          62.5675   83.8310   15.5536 C.3     1  UNL1        0.0242
     17 C          63.1883   82.1503   12.4429 C.2     1  UNL1        0.2371
     18 O          64.5880   82.6463   12.2307 O.2     1  UNL1       -0.2737
     19 N          62.1154   83.0998   12.8871 N.am    1  UNL1       -0.2959
     20 H          61.1968   82.7743   13.0263 H       1  UNL1        0.1499
     21 C          62.8615   80.7049   12.2108 C.3     1  UNL1        0.1316
     22 C          63.0548   80.1012   10.8512 C.3     1  UNL1        0.0270
     23 C          61.1118   80.2869   14.0853 C.3     1  UNL1        0.0862
     24 N          62.3415   79.8631   13.3382 N.3     1  UNL1       -0.2902
     25 H          62.1472   78.9397   12.9508 H       1  UNL1        0.1237
     26 C          64.1182   91.2056   15.7034 C.1     1  UNL1        0.1005
     27 N          64.4568   92.3266   16.6407 N.1     1  UNL1       -0.1908
     28 C          62.7417   87.4523   10.4072 C.3     1  UNL1        0.1278
     29 C          61.5600   87.1979    9.5190 C.ar    1  UNL1        0.0320
     30 C          60.2674   87.9176    9.7660 C.ar    1  UNL1        0.1363
     31 C          59.0857   87.6632    8.8779 C.ar    1  UNL1        0.0366
     32 C          59.1967   86.6891    7.7427 C.ar    1  UNL1        0.0031
     33 C          60.4893   85.9693    7.4956 C.ar    1  UNL1       -0.0001
     34 C          60.6002   84.9952    6.3604 C.ar    1  UNL1       -0.0000
     35 C          61.8929   84.2754    6.1133 C.ar    1  UNL1       -0.0000
     36 C          63.0746   84.5299    7.0016 C.ar    1  UNL1       -0.0000
     37 C          62.9637   85.5040    8.1368 C.ar    1  UNL1       -0.0002
     38 C          61.6710   86.2237    8.3838 C.ar    1  UNL1        0.0006
     39 O          60.1564   88.8917   10.9012 O.3     1  UNL1       -0.4717
     40 C          60.1226   90.3656   10.6243 C.3     1  UNL1        0.2525
@<TRIPOS>BOND
     1    23    24    1
     2    24    21    1
     3    21    22    1
     4    21    17    1
     5    17    18    2
     6    17    19   am
     7     1    19    1
     8     1     2    1
     9     2     3    2
    10     2     4   am
    11     4    28    1
    12    28    29    1
    13    29    30   ar
    14    30    39    1
    15    39    40    1
    16    30    31   ar
    17    31    32   ar
    18    32    33   ar
    19    33    34   ar
    20    34    35   ar
    21    35    36   ar
    22    36    37   ar
    23    37    38   ar
    24     4     5    1
    25     5     6   ar
    26     6     7   ar
    27     7     8   ar
    28     8    26    1
    29    26    27    3
    30     8     9   ar
    31     9    10   ar
    32    10    11    1
    33    11    12   am
    34    12    13    1
    35    12    14    2
    36    11    15    1
    37    15    16    1
    38    15     1    1
    39    38    29   ar
    40    10     5   ar
    41    38    33   ar
    42    24    25    1
    43    19    20    1
@<TRIPOS>MOLECULE
*****
 40 43 0 0 0
SMALL
GASTEIGER

@<TRIPOS>ATOM
      1 C          63.1078   86.1003   11.9600 C.3     1  UNL1        0.1678
      2 C          62.8415   87.4482   12.5620 C.2     1  UNL1        0.2492
      3 O          63.2042   87.3842   13.2689 O.2     1  UNL1       -0.2727
      4 N          62.0872   88.6031   11.9727 N.am    1  UNL1       -0.2517
      5 C          61.4130   88.6955   10.6360 C.ar    1  UNL1        0.0679
      6 C          60.7692   90.0358   10.4384 C.ar    1  UNL1        0.0169
      7 C          60.0389   90.3363    9.1631 C.ar    1  UNL1        0.0116
      8 C          59.9525   89.2965    8.0854 C.ar    1  UNL1        0.0698
      9 C          60.5963   87.9562    8.2830 C.ar    1  UNL1        0.0264
     10 C          61.3266   87.6557    9.5583 C.ar    1  UNL1        0.0682
     11 N          61.8930   86.2668    9.5512 N.am    1  UNL1       -0.2570
     12 C          61.6321   85.4639    8.3113 C.2     1  UNL1        0.2299
     13 C          60.8485   86.0626    7.1810 C.3     1  UNL1        0.0952
     14 O          62.1549   84.0622    8.2017 O.2     1  UNL1       -0.2745
     15 C          62.6857   85.5745   10.6200 C.3     1  UNL1        0.1066
     16 C          63.1127   84.1710   10.3077 C.3     1  UNL1        0.0242
     17 C          63.2103   84.3171   13.8466 C.2     1  UNL1        0.2371
     18 O          61.7260   84.4285   14.0327 O.2     1  UNL1       -0.2737
     19 N          63.9012   85.1530   12.8103 N.am    1  UNL1       -0.2959
     20 H          64.8753   85.0798   12.6883 H       1  UNL1        0.1499
     21 C          64.0037   83.3698   14.6970 C.3     1  UNL1        0.1316
     22 C          65.0667   83.8965   15.6150 C.3     1  UNL1        0.0270
     23 C          63.4378   81.2472   13.3097 C.3     1  UNL1        0.0862
     24 N          63.7341   81.8958   14.6294 N.3     1  UNL1       -0.2902
     25 H          64.5572   81.4282   15.0091 H       1  UNL1        0.1237
     26 C          59.2221   89.5971    6.8101 C.1     1  UNL1        0.1005
     27 N          58.4918   89.8976    5.5349 N.1     1  UNL1       -0.1908
     28 C          61.9950   89.8276   12.8342 C.3     1  UNL1        0.1278
     29 C          63.2356   90.4129   13.4411 C.ar    1  UNL1        0.0320
     30 C          63.5251   90.2100   14.8987 C.ar    1  UNL1        0.1363
     31 C          64.7657   90.7952   15.5057 C.ar    1  UNL1        0.0366
     32 C          65.7169   91.5834   14.6548 C.ar    1  UNL1        0.0031
     33 C          65.4274   91.7863   13.1971 C.ar    1  UNL1       -0.0001
     34 C          66.3786   92.5745   12.3462 C.ar    1  UNL1       -0.0000
     35 C          66.0892   92.7774   10.8884 C.ar    1  UNL1       -0.0000
     36 C          64.8486   92.1922   10.2816 C.ar    1  UNL1       -0.0000
     37 C          63.8974   91.4040   11.1324 C.ar    1  UNL1       -0.0002
     38 C          64.1868   91.2011   12.5902 C.ar    1  UNL1        0.0006
     39 O          62.5739   89.4218   15.7496 O.3     1  UNL1       -0.4717
     40 C          63.0975   88.5677   16.8661 C.3     1  UNL1        0.2525
@<TRIPOS>BOND
     1    23    24    1
     2    24    21    1
     3    21    22    1
     4    21    17    1
     5    17    18    2
     6    17    19   am
     7     1    19    1
     8     1     2    1
     9     2     3    2
    10     2     4   am
    11     4    28    1
    12    28    29    1
    13    29    30   ar
    14    30    39    1
    15    39    40    1
    16    30    31   ar
    17    31    32   ar
    18    32    33   ar
    19    33    34   ar
    20    34    35   ar
    21    35    36   ar
    22    36    37   ar
    23    37    38   ar
    24     4     5    1
    25     5     6   ar
    26     6     7   ar
    27     7     8   ar
    28     8    26    1
    29    26    27    3
    30     8     9   ar
    31     9    10   ar
    32    10    11    1
    33    11    12   am
    34    12    13    1
    35    12    14    2
    36    11    15    1
    37    15    16    1
    38    15     1    1
    39    38    29   ar
    40    10     5   ar
    41    38    33   ar
    42    24    25    1
    43    19    20    1
@<TRIPOS>MOLECULE
*****
 40 43 0 0 0
SMALL
GASTEIGER

@<TRIPOS>ATOM
      1 C          61.9274   86.9966   10.6196 C.3     1  UNL1        0.1678
      2 C          62.5217   86.0805   11.6480 C.2     1  UNL1        0.2492
      3 O          62.2796   85.3669   11.3882 O.2     1  UNL1       -0.2727
      4 N          63.3523   86.4332   12.8462 N.am    1  UNL1       -0.2517
      5 C          63.7937   87.7890   13.3121 C.ar    1  UNL1        0.0679
      6 C          64.6162   87.6976   14.5631 C.ar    1  UNL1        0.0169
      7 C          65.1585   88.9444   15.1968 C.ar    1  UNL1        0.0116
      8 C          64.8784   90.2824   14.5793 C.ar    1  UNL1        0.0698
      9 C          64.0559   90.3737   13.3283 C.ar    1  UNL1        0.0264
     10 C          63.5136   89.1270   12.6947 C.ar    1  UNL1        0.0682
     11 N          62.7228   89.4397   11.4589 N.am    1  UNL1       -0.2570
     12 C          62.6251   90.8926   11.0991 C.2     1  UNL1        0.2299
     13 C          63.2955   91.9245   11.9570 C.3     1  UNL1        0.0952
     14 O          61.8569   91.3137    9.8815 O.2     1  UNL1       -0.2745
     15 C          62.0169   88.4916   10.5354 C.3     1  UNL1        0.1066
     16 C          61.3066   89.1218    9.3743 C.3     1  UNL1        0.0242
     17 C          61.8354   85.8287    8.3006 C.2     1  UNL1        0.2371
     18 O          63.3193   85.9950    8.1580 O.2     1  UNL1       -0.2737
     19 N          61.1395   86.3296    9.5314 N.am    1  UNL1       -0.2959
     20 H          60.1655   86.2205    9.6250 H       1  UNL1        0.1499
     21 C          61.0474   85.1617    7.2125 C.3     1  UNL1        0.1316
     22 C          61.7407   84.2780    6.2183 C.3     1  UNL1        0.0270
     23 C          58.9760   86.7029    7.5020 C.3     1  UNL1        0.0862
     24 N          59.5661   85.3782    7.1185 N.3     1  UNL1       -0.2902
     25 H          59.3049   85.2097    6.1470 H       1  UNL1        0.1237
     26 C          65.4208   91.5291   15.2131 C.1     1  UNL1        0.1005
     27 N          65.9631   92.7758   15.8468 N.1     1  UNL1       -0.1908
     28 C          63.8007   85.2771   13.6903 C.3     1  UNL1        0.1278
     29 C          63.0590   83.9745   13.6331 C.ar    1  UNL1        0.0320
     30 C          62.0700   83.6270   14.7059 C.ar    1  UNL1        0.1363
     31 C          61.3283   82.3244   14.6488 C.ar    1  UNL1        0.0366
     32 C          61.5758   81.3694   13.5189 C.ar    1  UNL1        0.0031
     33 C          62.5648   81.7170   12.4461 C.ar    1  UNL1       -0.0001
     34 C          62.8123   80.7620   11.3162 C.ar    1  UNL1       -0.0000
     35 C          63.8014   81.1095   10.2433 C.ar    1  UNL1       -0.0000
     36 C          64.5430   82.4121   10.3005 C.ar    1  UNL1       -0.0000
     37 C          64.2956   83.3671   11.4304 C.ar    1  UNL1       -0.0002
     38 C          63.3065   83.0195   12.5032 C.ar    1  UNL1        0.0006
     39 O          61.8225   84.5820   15.8358 O.3     1  UNL1       -0.4717
     40 C          62.9759   85.1177   16.6314 C.3     1  UNL1        0.2525
@<TRIPOS>BOND
     1    23    24    1
     2    24    21    1
     3    21    22    1
     4    21    17    1
     5    17    18    2
     6    17    19   am
     7     1    19    1
     8     1     2    1
     9     2     3    2
    10     2     4   am
    11     4    28    1
    12    28    29    1
    13    29    30   ar
    14    30    39    1
    15    39    40    1
    16    30    31   ar
    17    31    32   ar
    18    32    33   ar
    19    33    34   ar
    20    34    35   ar
    21    35    36   ar
    22    36    37   ar
    23    37    38   ar
    24     4     5    1
    25     5     6   ar
    26     6     7   ar
    27     7     8   ar
    28     8    26    1
    29    26    27    3
    30     8     9   ar
    31     9    10   ar
    32    10    11    1
    33    11    12   am
    34    12    13    1
    35    12    14    2
    36    11    15    1
    37    15    16    1
    38    15     1    1
    39    38    29   ar
    40    10     5   ar
    41    38    33   ar
    42    24    25    1
    43    19    20    1
@<TRIPOS>MOLECULE
*****
 40 43 0 0 0
SMALL
GASTEIGER

@<TRIPOS>ATOM
      1 C          63.3534   88.9042   14.2939 C.3     1  UNL1        0.1678
      2 C          63.2224   88.8108   12.8026 C.2     1  UNL1        0.2492
      3 O          63.2751   89.5765   12.5873 O.2     1  UNL1       -0.2727
      4 N          63.0402   87.5870   11.9546 N.am    1  UNL1       -0.2517
      5 C          62.9440   86.1543   12.3884 C.ar    1  UNL1        0.0679
      6 C          62.7634   85.2374   11.2151 C.ar    1  UNL1        0.0169
      7 C          62.6450   83.7578   11.4309 C.ar    1  UNL1        0.0116
      8 C          62.7073   83.1951   12.8200 C.ar    1  UNL1        0.0698
      9 C          62.8879   84.1120   13.9932 C.ar    1  UNL1        0.0264
     10 C          63.0063   85.5916   13.7774 C.ar    1  UNL1        0.0682
     11 N          63.1801   86.3226   15.0757 N.am    1  UNL1       -0.2570
     12 C          63.2024   85.4661   16.3069 C.2     1  UNL1        0.2299
     13 C          63.0558   83.9779   16.1881 C.3     1  UNL1        0.0952
     14 O          63.3713   86.0977   17.6570 O.2     1  UNL1       -0.2745
     15 C          63.3346   87.7968   15.3056 C.3     1  UNL1        0.1066
     16 C          63.4909   88.2196   16.7363 C.3     1  UNL1        0.0242
     17 C          64.9001   90.8721   14.9904 C.2     1  UNL1        0.2371
     18 O          66.1015   90.0726   14.5812 O.2     1  UNL1       -0.2737
     19 N          63.5260   90.2879   14.8468 N.am    1  UNL1       -0.2959
     20 H          62.7375   90.8126   15.1153 H       1  UNL1        0.1499
     21 C          65.0727   92.2558   15.5432 C.3     1  UNL1        0.1316
     22 C          64.5800   92.5792   16.9226 C.3     1  UNL1        0.0270
     23 C          67.2222   93.5147   14.8051 C.3     1  UNL1        0.0862
     24 N          65.7380   93.3160   14.7167 N.3     1  UNL1       -0.2902
     25 H          65.5268   93.1048   13.7414 H       1  UNL1        0.1237
     26 C          62.5889   81.7153   13.0357 C.1     1  UNL1        0.1005
     27 N          62.4706   80.2357   13.2515 N.1     1  UNL1       -0.1908
     28 C          62.9411   87.8277   10.4773 C.3     1  UNL1        0.1278
     29 C          61.6711   87.5029    9.7481 C.ar    1  UNL1        0.0320
     30 C          60.3920   88.1880   10.1278 C.ar    1  UNL1        0.1363
     31 C          59.1220   87.8632    9.3986 C.ar    1  UNL1        0.0366
     32 C          59.1313   86.8533    8.2896 C.ar    1  UNL1        0.0031
     33 C          60.4105   86.1683    7.9098 C.ar    1  UNL1       -0.0001
     34 C          60.4198   85.1584    6.8007 C.ar    1  UNL1       -0.0000
     35 C          61.6990   84.4732    6.4208 C.ar    1  UNL1       -0.0000
     36 C          62.9689   84.7980    7.1501 C.ar    1  UNL1       -0.0000
     37 C          62.9597   85.8079    8.2592 C.ar    1  UNL1       -0.0002
     38 C          61.6804   86.4930    8.6390 C.ar    1  UNL1        0.0006
     39 O          60.3827   89.1979   11.2369 O.3     1  UNL1       -0.4717
     40 C          59.8958   90.5928   10.9771 C.3     1  UNL1        0.2525
@<TRIPOS>BOND
     1    23    24    1
     2    24    21    1
     3    21    22    1
     4    21    17    1
     5    17    18    2
     6    17    19   am
     7     1    19    1
     8     1     2    1
     9     2     3    2
    10     2     4   am
    11     4    28    1
    12    28    29    1
    13    29    30   ar
    14    30    39    1
    15    39    40    1
    16    30    31   ar
    17    31    32   ar
    18    32    33   ar
    19    33    34   ar
    20    34    35   ar
    21    35    36   ar
    22    36    37   ar
    23    37    38   ar
    24     4     5    1
    25     5     6   ar
    26     6     7   ar
    27     7     8   ar
    28     8    26    1
    29    26    27    3
    30     8     9   ar
    31     9    10   ar
    32    10    11    1
    33    11    12   am
    34    12    13    1
    35    12    14    2
    36    11    15    1
    37    15    16    1
    38    15     1    1
    39    38    29   ar
    40    10     5   ar
    41    38    33   ar
    42    24    25    1
    43    19    20    1
@<TRIPOS>MOLECULE
*****
 40 43 0 0 0
SMALL
GASTEIGER

@<TRIPOS>ATOM
      1 C          63.7892   89.3079   13.7942 C.3     1  UNL1        0.1678
      2 C          64.2309   87.8797   13.9170 C.2     1  UNL1        0.2492
      3 O          64.7005   87.9103   14.5603 O.2     1  UNL1       -0.2727
      4 N          63.8722   86.7118   13.0467 N.am    1  UNL1       -0.2517
      5 C          62.9834   86.6836   11.8387 C.ar    1  UNL1        0.0679
      6 C          62.8915   85.3037   11.2580 C.ar    1  UNL1        0.0169
      7 C          62.0499   85.0566   10.0413 C.ar    1  UNL1        0.0116
      8 C          61.3001   86.1894    9.4052 C.ar    1  UNL1        0.0698
      9 C          61.3920   87.5693    9.9860 C.ar    1  UNL1        0.0264
     10 C          62.2336   87.8164   11.2027 C.ar    1  UNL1        0.0682
     11 N          62.1876   89.2572   11.6176 N.am    1  UNL1       -0.2570
     12 C          61.3367   90.1526   10.7665 C.2     1  UNL1        0.2299
     13 C          60.6006   89.5889    9.5873 C.3     1  UNL1        0.0952
     14 O          61.2218   91.6118   11.0947 O.2     1  UNL1       -0.2745
     15 C          62.8799   89.9210   12.7709 C.3     1  UNL1        0.1066
     16 C          62.6297   91.3924   12.9206 C.3     1  UNL1        0.0242
     17 C          65.4018   91.2299   14.4690 C.2     1  UNL1        0.2371
     18 O          65.9365   91.2732   13.0681 O.2     1  UNL1       -0.2737
     19 N          64.3282   90.2473   14.8320 N.am    1  UNL1       -0.2959
     20 H          63.9773   90.2190   15.7514 H       1  UNL1        0.1499
     21 C          65.9408   92.1694   15.5068 C.3     1  UNL1        0.1316
     22 C          65.1612   92.4275   16.7620 C.3     1  UNL1        0.0270
     23 C          68.4734   92.3922   16.0417 C.3     1  UNL1        0.0862
     24 N          67.2594   92.8506   15.2894 N.3     1  UNL1       -0.2902
     25 H          67.4769   92.7612   14.2968 H       1  UNL1        0.1237
     26 C          60.4584   85.9422    8.1884 C.1     1  UNL1        0.1005
     27 N          59.6168   85.6950    6.9717 N.1     1  UNL1       -0.1908
     28 C          64.4833   85.3983   13.4359 C.3     1  UNL1        0.1278
     29 C          63.6036   84.2514   13.8370 C.ar    1  UNL1        0.0320
     30 C          62.8585   84.2970   15.1379 C.ar    1  UNL1        0.1363
     31 C          61.9788   83.1502   15.5391 C.ar    1  UNL1        0.0366
     32 C          61.8443   81.9577   14.6392 C.ar    1  UNL1        0.0031
     33 C          62.5895   81.9121   13.3382 C.ar    1  UNL1       -0.0001
     34 C          62.4550   80.7196   12.4383 C.ar    1  UNL1       -0.0000
     35 C          63.2001   80.6739   11.1372 C.ar    1  UNL1       -0.0000
     36 C          64.0798   81.8208   10.7362 C.ar    1  UNL1       -0.0000
     37 C          64.2143   83.0133   11.6360 C.ar    1  UNL1       -0.0002
     38 C          63.4691   83.0589   12.9371 C.ar    1  UNL1        0.0006
     39 O          62.9929   85.4896   16.0379 O.3     1  UNL1       -0.4717
     40 C          61.9538   85.7597   17.0854 C.3     1  UNL1        0.2525
@<TRIPOS>BOND
     1    23    24    1
     2    24    21    1
     3    21    22    1
     4    21    17    1
     5    17    18    2
     6    17    19   am
     7     1    19    1
     8     1     2    1
     9     2     3    2
    10     2     4   am
    11     4    28    1
    12    28    29    1
    13    29    30   ar
    14    30    39    1
    15    39    40    1
    16    30    31   ar
    17    31    32   ar
    18    32    33   ar
    19    33    34   ar
    20    34    35   ar
    21    35    36   ar
    22    36    37   ar
    23    37    38   ar
    24     4     5    1
    25     5     6   ar
    26     6     7   ar
    27     7     8   ar
    28     8    26    1
    29    26    27    3
    30     8     9   ar
    31     9    10   ar
    32    10    11    1
    33    11    12   am
    34    12    13    1
    35    12    14    2
    36    11    15    1
    37    15    16    1
    38    15     1    1
    39    38    29   ar
    40    10     5   ar
    41    38    33   ar
    42    24    25    1
    43    19    20    1
@<TRIPOS>MOLECULE
*****
 40 43 0 0 0
SMALL
GASTEIGER

@<TRIPOS>ATOM
      1 C          63.6403   89.5590   14.0802 C.3     1  UNL1        0.1678
      2 C          63.2326   89.4193   12.6434 C.2     1  UNL1        0.2492
      3 O          62.8056   88.7465   12.6611 O.2     1  UNL1       -0.2727
      4 N          63.5540   90.3207   11.4883 N.am    1  UNL1       -0.2517
      5 C          64.3624   91.5842   11.4846 C.ar    1  UNL1        0.0679
      6 C          64.4403   92.1809   10.1106 C.ar    1  UNL1        0.0169
      7 C          65.2048   93.4519    9.8872 C.ar    1  UNL1        0.0116
      8 C          65.8914   94.1263   11.0378 C.ar    1  UNL1        0.0698
      9 C          65.8136   93.5295   12.4118 C.ar    1  UNL1        0.0264
     10 C          65.0490   92.2585   12.6352 C.ar    1  UNL1        0.0682
     11 N          65.0969   91.8358   14.0736 N.am    1  UNL1       -0.2570
     12 C          65.8746   92.7332   14.9901 C.2     1  UNL1        0.2299
     13 C          66.5417   93.9625   14.4480 C.3     1  UNL1        0.0952
     14 O          65.9851   92.4013   16.4488 O.2     1  UNL1       -0.2745
     15 C          64.4699   90.6344   14.7168 C.3     1  UNL1        0.1066
     16 C          64.7035   90.4893   16.1913 C.3     1  UNL1        0.0242
     17 C          64.0173   87.2861   15.2809 C.2     1  UNL1        0.2371
     18 O          65.3671   87.1698   14.6370 O.2     1  UNL1       -0.2737
     19 N          63.1539   88.4806   15.0025 N.am    1  UNL1       -0.2959
     20 H          62.2680   88.5569   15.4251 H       1  UNL1        0.1499
     21 C          63.5309   86.2077   16.2031 C.3     1  UNL1        0.1316
     22 C          62.7423   86.5672   17.4275 C.3     1  UNL1        0.0270
     23 C          62.7510   83.8684   15.3851 C.3     1  UNL1        0.0862
     24 N          63.8331   84.7699   15.9011 N.3     1  UNL1       -0.2902
     25 H          64.5774   84.7656   15.2037 H       1  UNL1        0.1237
     26 C          66.6560   95.3974   10.8143 C.1     1  UNL1        0.1005
     27 N          67.4205   96.6684   10.5909 N.1     1  UNL1       -0.1908
     28 C          62.9928   89.9032   10.1614 C.3     1  UNL1        0.1278
     29 C          61.8106   88.9818   10.1034 C.ar    1  UNL1        0.0320
     30 C          60.4833   89.4301   10.6394 C.ar    1  UNL1        0.1363
     31 C          59.3011   88.5087   10.5815 C.ar    1  UNL1        0.0366
     32 C          59.4462   87.1390    9.9875 C.ar    1  UNL1        0.0031
     33 C          60.7734   86.6907    9.4515 C.ar    1  UNL1       -0.0001
     34 C          60.9185   85.3209    8.8575 C.ar    1  UNL1       -0.0000
     35 C          62.2458   84.8726    8.3215 C.ar    1  UNL1       -0.0000
     36 C          63.4279   85.7940    8.3795 C.ar    1  UNL1       -0.0000
     37 C          63.2830   87.1637    8.9734 C.ar    1  UNL1       -0.0002
     38 C          61.9556   87.6120    9.5094 C.ar    1  UNL1        0.0006
     39 O          60.3382   90.7998   11.2334 O.3     1  UNL1       -0.4717
     40 C          58.9820   91.3085   11.6232 C.3     1  UNL1        0.2525
@<TRIPOS>BOND
     1    23    24    1
     2    24    21    1
     3    21    22    1
     4    21    17    1
     5    17    18    2
     6    17    19   am
     7     1    19    1
     8     1     2    1
     9     2     3    2
    10     2     4   am
    11     4    28    1
    12    28    29    1
    13    29    30   ar
    14    30    39    1
    15    39    40    1
    16    30    31   ar
    17    31    32   ar
    18    32    33   ar
    19    33    34   ar
    20    34    35   ar
    21    35    36   ar
    22    36    37   ar
    23    37    38   ar
    24     4     5    1
    25     5     6   ar
    26     6     7   ar
    27     7     8   ar
    28     8    26    1
    29    26    27    3
    30     8     9   ar
    31     9    10   ar
    32    10    11    1
    33    11    12   am
    34    12    13    1
    35    12    14    2
    36    11    15    1
    37    15    16    1
    38    15     1    1
    39    38    29   ar
    40    10     5   ar
    41    38    33   ar
    42    24    25    1
    43    19    20    1
@<TRIPOS>MOLECULE
*****
 40 43 0 0 0
SMALL
GASTEIGER

@<TRIPOS>ATOM
      1 C          63.0018   90.0291   14.8644 C.3     1  UNL1        0.1678
      2 C          62.3638   89.8138   13.5240 C.2     1  UNL1        0.2492
      3 O          61.7899   89.2895   13.7003 O.2     1  UNL1       -0.2727
      4 N          62.7252   90.4324   12.2062 N.am    1  UNL1       -0.2517
      5 C          63.8136   91.4191   11.9032 C.ar    1  UNL1        0.0679
      6 C          63.8335   91.7835   10.4483 C.ar    1  UNL1        0.0169
      7 C          64.8492   92.7598    9.9335 C.ar    1  UNL1        0.0116
      8 C          65.8452   93.3716   10.8736 C.ar    1  UNL1        0.0698
      9 C          65.8254   93.0071   12.3285 C.ar    1  UNL1        0.0264
     10 C          64.8096   92.0308   12.8433 C.ar    1  UNL1        0.0682
     11 N          64.9630   91.8070   14.3185 N.am    1  UNL1       -0.2570
     12 C          66.0671   92.5757   14.9820 C.2     1  UNL1        0.2299
     13 C          66.9321   93.4958   14.1724 C.3     1  UNL1        0.0952
     14 O          66.3062   92.4244   16.4551 O.2     1  UNL1       -0.2745
     15 C          64.1585   90.9162   15.2181 C.3     1  UNL1        0.1066
     16 C          64.5644   90.9119   16.6621 C.3     1  UNL1        0.0242
     17 C          63.0319   87.9667   16.4441 C.2     1  UNL1        0.2371
     18 O          64.2578   87.4524   15.7494 O.2     1  UNL1       -0.2737
     19 N          62.4039   89.2550   16.0017 N.am    1  UNL1       -0.2959
     20 H          61.5993   89.5925   16.4576 H       1  UNL1        0.1499
     21 C          62.4339   87.1926   17.5813 C.3     1  UNL1        0.1316
     22 C          62.6879   87.6215   18.9961 C.3     1  UNL1        0.0270
     23 C          62.0190   84.9804   16.2837 C.3     1  UNL1        0.0862
     24 N          61.5821   85.9896   17.3038 N.3     1  UNL1       -0.2902
     25 H          61.4809   85.4902   18.1874 H       1  UNL1        0.1237
     26 C          66.8610   94.3479   10.3588 C.1     1  UNL1        0.1005
     27 N          67.8768   95.3242    9.8440 N.1     1  UNL1       -0.1908
     28 C          61.8873   90.0082   11.0366 C.3     1  UNL1        0.1278
     29 C          61.8228   88.5614   10.6456 C.ar    1  UNL1        0.0320
     30 C          62.6393   87.5465   11.3892 C.ar    1  UNL1        0.1363
     31 C          62.5748   86.0997   10.9983 C.ar    1  UNL1        0.0366
     32 C          61.6938   85.6680    9.8636 C.ar    1  UNL1        0.0031
     33 C          60.8773   86.6830    9.1200 C.ar    1  UNL1       -0.0001
     34 C          59.9963   86.2513    7.9853 C.ar    1  UNL1       -0.0000
     35 C          59.1798   87.2663    7.2416 C.ar    1  UNL1       -0.0000
     36 C          59.2443   88.7130    7.6326 C.ar    1  UNL1       -0.0000
     37 C          60.1253   89.1448    8.7672 C.ar    1  UNL1       -0.0002
     38 C          60.9418   88.1297    9.5109 C.ar    1  UNL1        0.0006
     39 O          63.5203   87.9782   12.5239 O.3     1  UNL1       -0.4717
     40 C          64.1674   86.9503   13.4042 C.3     1  UNL1        0.2525
@<TRIPOS>BOND
     1    23    24    1
     2    24    21    1
     3    21    22    1
     4    21    17    1
     5    17    18    2
     6    17    19   am
     7     1    19    1
     8     1     2    1
     9     2     3    2
    10     2     4   am
    11     4    28    1
    12    28    29    1
    13    29    30   ar
    14    30    39    1
    15    39    40    1
    16    30    31   ar
    17    31    32   ar
    18    32    33   ar
    19    33    34   ar
    20    34    35   ar
    21    35    36   ar
    22    36    37   ar
    23    37    38   ar
    24     4     5    1
    25     5     6   ar
    26     6     7   ar
    27     7     8   ar
    28     8    26    1
    29    26    27    3
    30     8     9   ar
    31     9    10   ar
    32    10    11    1
    33    11    12   am
    34    12    13    1
    35    12    14    2
    36    11    15    1
    37    15    16    1
    38    15     1    1
    39    38    29   ar
    40    10     5   ar
    41    38    33   ar
    42    24    25    1
    43    19    20    1
