@<TRIPOS>MOLECULE
*****
 31 34 0 0 0
SMALL
GASTEIGER

@<TRIPOS>ATOM
      1 C          63.8433   85.9191   15.6088 C.3     1  UNL1        0.1528
      2 C          63.8290   87.4160   15.5141 C.ar    1  UNL1        0.2480
      3 N          64.6463   88.2476   14.5705 N.ar    1  UNL1       -0.1900
      4 C          64.3173   89.6898   14.8196 C.ar    1  UNL1        0.2034
      5 N          63.2967   89.7494   15.9173 N.ar    1  UNL1       -0.0560
      6 O          62.9949   88.3441   16.3465 O.2     1  UNL1       -0.3361
      7 C          64.9055   90.8657   14.0979 C.ar    1  UNL1        0.0423
      8 C          64.3842   91.2536   12.7460 C.ar    1  UNL1        0.0065
      9 C          64.9724   92.4296   12.0242 C.ar    1  UNL1        0.0401
     10 C          66.0822   93.2178   12.6544 C.ar    1  UNL1        0.1724
     11 C          66.6036   92.8300   14.0063 C.ar    1  UNL1        0.1725
     12 C          66.0153   91.6540   14.7281 C.ar    1  UNL1        0.0432
     13 O          66.6704   94.3938   11.9326 O.3     1  UNL1       -0.4684
     14 C          65.8999   95.0602   10.8317 C.3     1  UNL1        0.2526
     15 O          67.7134   93.6183   14.6365 O.3     1  UNL1       -0.4684
     16 C          68.5410   93.0075   15.7283 C.3     1  UNL1        0.2526
     17 S          64.5475   85.1080   14.5618 S.3     1  UNL1       -0.0653
     18 N          63.4394   83.1854   13.0716 N.ar    1  UNL1       -0.2724
     19 C          63.2114   81.7124   13.2392 C.ar    1  UNL1        0.1479
     20 C          62.5504   80.8038   12.2453 C.3     1  UNL1        0.0742
     21 N          63.7604   81.3073   14.5750 N.ar    1  UNL1       -0.1325
     22 N          64.3277   82.5300   15.2331 N.ar    1  UNL1       -0.1221
     23 C          64.1293   83.6908   14.3039 C.ar    1  UNL1        0.1973
     24 C          62.2607   85.6550    9.4992 C.ar    1  UNL1        0.1388
     25 C          63.2425   84.5318    9.3435 C.ar    1  UNL1        0.0384
     26 C          63.6354   83.7086   10.5343 C.ar    1  UNL1        0.0207
     27 C          63.0465   84.0086   11.8808 C.ar    1  UNL1        0.0671
     28 C          62.0646   85.1318   12.0365 C.ar    1  UNL1        0.0207
     29 C          61.6717   85.9550   10.8457 C.ar    1  UNL1        0.0384
     30 C          60.4585   86.4321    7.7968 C.3     1  UNL1        0.2525
     31 O          61.8677   86.4782    8.3084 O.3     1  UNL1       -0.4714
@<TRIPOS>BOND
     1    30    31    1
     2    31    24    1
     3    24    25   ar
     4    25    26   ar
     5    26    27   ar
     6    27    18    1
     7    18    19   ar
     8    19    20    1
     9    19    21   ar
    10    21    22   ar
    11    22    23   ar
    12    23    17    1
    13    17     1    1
    14     1     2    1
    15     2     3   ar
    16     3     4   ar
    17     4     7    1
    18     7     8   ar
    19     8     9   ar
    20     9    10   ar
    21    10    13    1
    22    13    14    1
    23    10    11   ar
    24    11    15    1
    25    15    16    1
    26    11    12   ar
    27     4     5   ar
    28     5     6   ar
    29    27    28   ar
    30    28    29   ar
    31    29    24   ar
    32    23    18   ar
    33     6     2   ar
    34    12     7   ar
@<TRIPOS>MOLECULE
*****
 31 34 0 0 0
SMALL
GASTEIGER

@<TRIPOS>ATOM
      1 C          62.1972   90.4692   11.3672 C.3     1  UNL1        0.1528
      2 C          62.2060   89.0229   10.9697 C.ar    1  UNL1        0.2480
      3 N          62.5733   87.8679   11.8535 N.ar    1  UNL1       -0.1900
      4 C          62.4434   86.6087   11.0486 C.ar    1  UNL1        0.2034
      5 N          61.9958   86.9856    9.6674 N.ar    1  UNL1       -0.0560
      6 O          61.8491   88.4776    9.6187 O.2     1  UNL1       -0.3361
      7 C          62.7136   85.2171   11.5388 C.ar    1  UNL1        0.0423
      8 C          63.1382   84.1508   10.5730 C.ar    1  UNL1        0.0065
      9 C          63.4084   82.7592   11.0632 C.ar    1  UNL1        0.0401
     10 C          63.2541   82.4338   12.5193 C.ar    1  UNL1        0.1724
     11 C          62.8296   83.5000   13.4852 C.ar    1  UNL1        0.1725
     12 C          62.5593   84.8917   12.9950 C.ar    1  UNL1        0.0432
     13 O          63.5243   81.0422   13.0095 O.3     1  UNL1       -0.4684
     14 C          62.3924   80.0717   13.1734 C.3     1  UNL1        0.2526
     15 O          62.6752   83.1746   14.9413 O.3     1  UNL1       -0.4684
     16 C          62.5054   84.2785   15.9426 C.3     1  UNL1        0.2526
     17 S          63.4680   91.2652   11.3296 S.3     1  UNL1       -0.0653
     18 N          65.6783   92.0187   12.6303 N.ar    1  UNL1       -0.2724
     19 C          66.3069   91.6663   13.9459 C.ar    1  UNL1        0.1479
     20 C          67.5869   92.2280   14.4899 C.3     1  UNL1        0.0742
     21 N          65.4307   90.6537   14.6219 N.ar    1  UNL1       -0.1325
     22 N          64.2606   90.3802   13.7241 N.ar    1  UNL1       -0.1221
     23 C          64.4136   91.2238   12.4933 C.ar    1  UNL1        0.1973
     24 C          67.3015   94.9462    9.6228 C.ar    1  UNL1        0.1388
     25 C          66.5652   95.4432   10.8315 C.ar    1  UNL1        0.0384
     26 C          66.0242   94.4673   11.8340 C.ar    1  UNL1        0.0207
     27 C          66.2194   92.9945   11.6278 C.ar    1  UNL1        0.0671
     28 C          66.9556   92.4975   10.4191 C.ar    1  UNL1        0.0207
     29 C          67.4966   93.4733    9.4167 C.ar    1  UNL1        0.0384
     30 C          66.9120   96.8560    7.9050 C.3     1  UNL1        0.2525
     31 O          67.8425   95.9220    8.6203 O.3     1  UNL1       -0.4714
@<TRIPOS>BOND
     1    30    31    1
     2    31    24    1
     3    24    25   ar
     4    25    26   ar
     5    26    27   ar
     6    27    18    1
     7    18    19   ar
     8    19    20    1
     9    19    21   ar
    10    21    22   ar
    11    22    23   ar
    12    23    17    1
    13    17     1    1
    14     1     2    1
    15     2     3   ar
    16     3     4   ar
    17     4     7    1
    18     7     8   ar
    19     8     9   ar
    20     9    10   ar
    21    10    13    1
    22    13    14    1
    23    10    11   ar
    24    11    15    1
    25    15    16    1
    26    11    12   ar
    27     4     5   ar
    28     5     6   ar
    29    27    28   ar
    30    28    29   ar
    31    29    24   ar
    32    23    18   ar
    33     6     2   ar
    34    12     7   ar
@<TRIPOS>MOLECULE
*****
 31 34 0 0 0
SMALL
GASTEIGER

@<TRIPOS>ATOM
      1 C          62.1898   90.2412   10.1813 C.3     1  UNL1        0.1528
      2 C          62.0291   88.7547   10.0610 C.ar    1  UNL1        0.2480
      3 N          62.6418   87.7257   10.9643 N.ar    1  UNL1       -0.1900
      4 C          62.2189   86.3712   10.4779 C.ar    1  UNL1        0.2034
      5 N          61.3449   86.5631    9.2740 N.ar    1  UNL1       -0.0560
      6 O          61.2276   88.0361    9.0164 O.2     1  UNL1       -0.3361
      7 C          62.6027   85.0559   11.0882 C.ar    1  UNL1        0.0423
      8 C          63.1497   83.9589   10.2236 C.ar    1  UNL1        0.0065
      9 C          63.5335   82.6435   10.8339 C.ar    1  UNL1        0.0401
     10 C          63.3702   82.4251   12.3089 C.ar    1  UNL1        0.1724
     11 C          62.8232   83.5219   13.1736 C.ar    1  UNL1        0.1725
     12 C          62.4394   84.8373   12.5633 C.ar    1  UNL1        0.0432
     13 O          63.7540   81.1097   12.9192 O.3     1  UNL1       -0.4684
     14 C          62.6936   80.1104   13.2756 C.3     1  UNL1        0.2526
     15 O          62.6599   83.3034   14.6485 O.3     1  UNL1       -0.4684
     16 C          63.8348   83.4706   15.5660 C.3     1  UNL1        0.2526
     17 S          62.4944   90.8573   11.5145 S.3     1  UNL1       -0.0653
     18 N          64.6724   91.1038   13.0443 N.ar    1  UNL1       -0.2724
     19 C          65.9867   91.8146   12.9119 C.ar    1  UNL1        0.1479
     20 C          67.0943   91.8157   13.9234 C.3     1  UNL1        0.0742
     21 N          65.9989   92.5241   11.5903 N.ar    1  UNL1       -0.1325
     22 N          64.6921   92.2519   10.9060 N.ar    1  UNL1       -0.1221
     23 C          63.8724   91.3741   11.8046 C.ar    1  UNL1        0.1973
     24 C          63.3603   88.6003   16.5459 C.ar    1  UNL1        0.1388
     25 C          63.3295   90.0970   16.6405 C.ar    1  UNL1        0.0384
     26 C          63.7669   90.9315   15.4733 C.ar    1  UNL1        0.0207
     27 C          64.2351   90.2693   14.2115 C.ar    1  UNL1        0.0671
     28 C          64.2659   88.7727   14.1169 C.ar    1  UNL1        0.0207
     29 C          63.8285   87.9382   15.2840 C.ar    1  UNL1        0.0384
     30 C          62.6096   86.3117   17.5199 C.3     1  UNL1        0.2525
     31 O          62.9230   87.7658   17.7131 O.3     1  UNL1       -0.4714
@<TRIPOS>BOND
     1    30    31    1
     2    31    24    1
     3    24    25   ar
     4    25    26   ar
     5    26    27   ar
     6    27    18    1
     7    18    19   ar
     8    19    20    1
     9    19    21   ar
    10    21    22   ar
    11    22    23   ar
    12    23    17    1
    13    17     1    1
    14     1     2    1
    15     2     3   ar
    16     3     4   ar
    17     4     7    1
    18     7     8   ar
    19     8     9   ar
    20     9    10   ar
    21    10    13    1
    22    13    14    1
    23    10    11   ar
    24    11    15    1
    25    15    16    1
    26    11    12   ar
    27     4     5   ar
    28     5     6   ar
    29    27    28   ar
    30    28    29   ar
    31    29    24   ar
    32    23    18   ar
    33     6     2   ar
    34    12     7   ar
@<TRIPOS>MOLECULE
*****
 31 34 0 0 0
SMALL
GASTEIGER

@<TRIPOS>ATOM
      1 C          61.6838   85.7204   11.1092 C.3     1  UNL1        0.1528
      2 C          61.8402   87.1513   11.5312 C.ar    1  UNL1        0.2480
      3 N          63.1161   87.8066   11.9701 N.ar    1  UNL1       -0.1900
      4 C          62.8126   89.2385   12.2986 C.ar    1  UNL1        0.2034
      5 N          61.3491   89.4679   12.0628 N.ar    1  UNL1       -0.0560
      6 O          60.7481   88.1780   11.5885 O.2     1  UNL1       -0.3361
      7 C          63.7993   90.2611   12.7787 C.ar    1  UNL1        0.0423
      8 C          64.3977   90.1407   14.1488 C.ar    1  UNL1        0.0065
      9 C          65.3845   91.1634   14.6289 C.ar    1  UNL1        0.0401
     10 C          65.7727   92.3066   13.7388 C.ar    1  UNL1        0.1724
     11 C          65.1744   92.4271   12.3686 C.ar    1  UNL1        0.1725
     12 C          64.1876   91.4044   11.8885 C.ar    1  UNL1        0.0432
     13 O          66.7595   93.3292   14.2189 O.3     1  UNL1       -0.4684
     14 C          67.4312   93.1568   15.5489 C.3     1  UNL1        0.2526
     15 O          65.5627   93.5703   11.4785 O.3     1  UNL1       -0.4684
     16 C          66.5398   93.3527   10.3615 C.3     1  UNL1        0.2526
     17 S          62.8852   84.9267   10.6893 S.3     1  UNL1       -0.0653
     18 N          63.2431   83.1370   12.6423 N.ar    1  UNL1       -0.2724
     19 C          63.4093   81.6473   12.6983 C.ar    1  UNL1        0.1479
     20 C          63.6023   80.8278   13.9398 C.3     1  UNL1        0.0742
     21 N          63.3487   81.1209   11.2950 N.ar    1  UNL1       -0.1325
     22 N          63.1450   82.2853   10.3716 N.ar    1  UNL1       -0.1221
     23 C          63.0797   83.5313   11.2043 C.ar    1  UNL1        0.1973
     24 C          63.2357   85.9323   16.1688 C.ar    1  UNL1        0.1388
     25 C          64.2907   86.0628   15.1105 C.ar    1  UNL1        0.0384
     26 C          64.2931   85.1310   13.9350 C.ar    1  UNL1        0.0207
     27 C          63.2406   84.0688   13.8178 C.ar    1  UNL1        0.0671
     28 C          62.1857   83.9383   14.8760 C.ar    1  UNL1        0.0207
     29 C          62.1832   84.8700   16.0515 C.ar    1  UNL1        0.0384
     30 C          63.0542   88.3382   17.1325 C.3     1  UNL1        0.2525
     31 O          63.2332   86.8641   17.3443 O.3     1  UNL1       -0.4714
@<TRIPOS>BOND
     1    30    31    1
     2    31    24    1
     3    24    25   ar
     4    25    26   ar
     5    26    27   ar
     6    27    18    1
     7    18    19   ar
     8    19    20    1
     9    19    21   ar
    10    21    22   ar
    11    22    23   ar
    12    23    17    1
    13    17     1    1
    14     1     2    1
    15     2     3   ar
    16     3     4   ar
    17     4     7    1
    18     7     8   ar
    19     8     9   ar
    20     9    10   ar
    21    10    13    1
    22    13    14    1
    23    10    11   ar
    24    11    15    1
    25    15    16    1
    26    11    12   ar
    27     4     5   ar
    28     5     6   ar
    29    27    28   ar
    30    28    29   ar
    31    29    24   ar
    32    23    18   ar
    33     6     2   ar
    34    12     7   ar
@<TRIPOS>MOLECULE
*****
 31 34 0 0 0
SMALL
GASTEIGER

@<TRIPOS>ATOM
      1 C          62.4813   90.4594   11.8580 C.3     1  UNL1        0.1528
      2 C          62.3752   89.0239   11.4358 C.ar    1  UNL1        0.2480
      3 N          62.7884   87.8329   12.2487 N.ar    1  UNL1       -0.1900
      4 C          62.5059   86.6003   11.4418 C.ar    1  UNL1        0.2034
      5 N          61.9181   87.0297   10.1302 N.ar    1  UNL1       -0.0560
      6 O          61.8374   88.5275   10.1265 O.2     1  UNL1       -0.3361
      7 C          62.7656   85.1868   11.8711 C.ar    1  UNL1        0.0423
      8 C          62.5956   84.7965   13.3094 C.ar    1  UNL1        0.0065
      9 C          62.8553   83.3829   13.7387 C.ar    1  UNL1        0.0401
     10 C          63.2849   82.3596   12.7297 C.ar    1  UNL1        0.1724
     11 C          63.4549   82.7498   11.2914 C.ar    1  UNL1        0.1725
     12 C          63.1952   84.1634   10.8620 C.ar    1  UNL1        0.0432
     13 O          63.5446   80.9460   13.1590 O.3     1  UNL1       -0.4684
     14 C          62.4282   80.1149   13.7184 C.3     1  UNL1        0.2526
     15 O          63.8845   81.7264   10.2824 O.3     1  UNL1       -0.4684
     16 C          63.0715   80.4817   10.0837 C.3     1  UNL1        0.2526
     17 S          63.7866   91.1860   11.7243 S.3     1  UNL1       -0.0653
     18 N          65.6875   92.5584   13.0080 N.ar    1  UNL1       -0.2724
     19 C          66.1657   92.6338   14.4277 C.ar    1  UNL1        0.1479
     20 C          67.2804   93.4982   14.9379 C.3     1  UNL1        0.0742
     21 N          65.3336   91.6931   15.2478 N.ar    1  UNL1       -0.1325
     22 N          64.3410   91.0362   14.3348 N.ar    1  UNL1       -0.1221
     23 C          64.5598   91.5710   12.9506 C.ar    1  UNL1        0.1973
     24 C          67.3451   94.8857    9.5314 C.ar    1  UNL1        0.1388
     25 C          67.4819   93.3924    9.5678 C.ar    1  UNL1        0.0384
     26 C          66.9293   92.6166   10.7266 C.ar    1  UNL1        0.0207
     27 C          66.2401   93.3342   11.8491 C.ar    1  UNL1        0.0671
     28 C          66.1033   94.8274   11.8127 C.ar    1  UNL1        0.0207
     29 C          66.6558   95.6032   10.6539 C.ar    1  UNL1        0.0384
     30 C          67.1535   96.8516    7.8437 C.3     1  UNL1        0.2525
     31 O          67.8976   95.6614    8.3726 O.3     1  UNL1       -0.4714
@<TRIPOS>BOND
     1    30    31    1
     2    31    24    1
     3    24    25   ar
     4    25    26   ar
     5    26    27   ar
     6    27    18    1
     7    18    19   ar
     8    19    20    1
     9    19    21   ar
    10    21    22   ar
    11    22    23   ar
    12    23    17    1
    13    17     1    1
    14     1     2    1
    15     2     3   ar
    16     3     4   ar
    17     4     7    1
    18     7     8   ar
    19     8     9   ar
    20     9    10   ar
    21    10    13    1
    22    13    14    1
    23    10    11   ar
    24    11    15    1
    25    15    16    1
    26    11    12   ar
    27     4     5   ar
    28     5     6   ar
    29    27    28   ar
    30    28    29   ar
    31    29    24   ar
    32    23    18   ar
    33     6     2   ar
    34    12     7   ar
@<TRIPOS>MOLECULE
*****
 31 34 0 0 0
SMALL
GASTEIGER

@<TRIPOS>ATOM
      1 C          62.8696   90.0459   12.5465 C.3     1  UNL1        0.1528
      2 C          63.2298   88.6526   12.9695 C.ar    1  UNL1        0.2480
      3 N          62.8469   87.3886   12.2586 N.ar    1  UNL1       -0.1900
      4 C          63.4167   86.2334   13.0276 C.ar    1  UNL1        0.2034
      5 N          64.1517   86.7838   14.2137 N.ar    1  UNL1       -0.0560
      6 O          64.0362   88.2789   14.1778 O.2     1  UNL1       -0.3361
      7 C          63.2761   84.7829   12.6727 C.ar    1  UNL1        0.0423
      8 C          63.6254   84.3111   11.2924 C.ar    1  UNL1        0.0065
      9 C          63.4848   82.8605   10.9374 C.ar    1  UNL1        0.0401
     10 C          62.9948   81.8816   11.9629 C.ar    1  UNL1        0.1724
     11 C          62.6454   82.3533   13.3433 C.ar    1  UNL1        0.1725
     12 C          62.7860   83.8039   13.6982 C.ar    1  UNL1        0.0432
     13 O          62.8542   80.4310   11.6080 O.3     1  UNL1       -0.4684
     14 C          62.9554   79.9960   10.1761 C.3     1  UNL1        0.2526
     15 O          62.1555   81.3744   14.3688 O.3     1  UNL1       -0.4684
     16 C          60.8049   80.7402   14.2150 C.3     1  UNL1        0.2526
     17 S          63.9491   91.0575   12.2995 S.3     1  UNL1       -0.0653
     18 N          65.8698   92.5891   13.3531 N.ar    1  UNL1       -0.2724
     19 C          66.4102   92.8121   14.7345 C.ar    1  UNL1        0.1479
     20 C          67.5238   93.7461   15.1055 C.3     1  UNL1        0.0742
     21 N          65.6414   91.9373   15.6799 N.ar    1  UNL1       -0.1325
     22 N          64.6259   91.1736   14.8828 N.ar    1  UNL1       -0.1221
     23 C          64.7671   91.5764   13.4448 C.ar    1  UNL1        0.1973
     24 C          67.3050   94.6041    9.5941 C.ar    1  UNL1        0.1388
     25 C          66.6265   95.4076   10.6637 C.ar    1  UNL1        0.0384
     26 C          66.1482   94.7360   11.9167 C.ar    1  UNL1        0.0207
     27 C          66.3482   93.2607   12.1001 C.ar    1  UNL1        0.0671
     28 C          67.0267   92.4572   11.0306 C.ar    1  UNL1        0.0207
     29 C          67.5050   93.1289    9.7776 C.ar    1  UNL1        0.0384
     30 C          67.2390   96.6193    7.9557 C.3     1  UNL1        0.2525
     31 O          67.7833   95.2758    8.3411 O.3     1  UNL1       -0.4714
@<TRIPOS>BOND
     1    30    31    1
     2    31    24    1
     3    24    25   ar
     4    25    26   ar
     5    26    27   ar
     6    27    18    1
     7    18    19   ar
     8    19    20    1
     9    19    21   ar
    10    21    22   ar
    11    22    23   ar
    12    23    17    1
    13    17     1    1
    14     1     2    1
    15     2     3   ar
    16     3     4   ar
    17     4     7    1
    18     7     8   ar
    19     8     9   ar
    20     9    10   ar
    21    10    13    1
    22    13    14    1
    23    10    11   ar
    24    11    15    1
    25    15    16    1
    26    11    12   ar
    27     4     5   ar
    28     5     6   ar
    29    27    28   ar
    30    28    29   ar
    31    29    24   ar
    32    23    18   ar
    33     6     2   ar
    34    12     7   ar
@<TRIPOS>MOLECULE
*****
 31 34 0 0 0
SMALL
GASTEIGER

@<TRIPOS>ATOM
      1 C          62.3679   90.2413   10.3934 C.3     1  UNL1        0.1528
      2 C          62.1861   88.7550   10.3035 C.ar    1  UNL1        0.2480
      3 N          62.7182   87.7415   11.2728 N.ar    1  UNL1       -0.1900
      4 C          62.3011   86.3814   10.7969 C.ar    1  UNL1        0.2034
      5 N          61.5113   86.5545    9.5335 N.ar    1  UNL1       -0.0560
      6 O          61.4402   88.0215    9.2286 O.2     1  UNL1       -0.3361
      7 C          62.6183   85.0774   11.4667 C.ar    1  UNL1        0.0423
      8 C          62.4421   84.9333   12.9493 C.ar    1  UNL1        0.0065
      9 C          62.7592   83.6292   13.6192 C.ar    1  UNL1        0.0401
     10 C          63.2526   82.4691   12.8064 C.ar    1  UNL1        0.1724
     11 C          63.4288   82.6130   11.3238 C.ar    1  UNL1        0.1725
     12 C          63.1117   83.9171   10.6539 C.ar    1  UNL1        0.0432
     13 O          63.5697   81.1650   13.4763 O.3     1  UNL1       -0.4684
     14 C          62.4828   80.1579   13.7098 C.3     1  UNL1        0.2526
     15 O          63.9222   81.4528   10.5111 O.3     1  UNL1       -0.4684
     16 C          62.9751   80.3606   10.1111 C.3     1  UNL1        0.2526
     17 S          62.6149   90.8875   11.7242 S.3     1  UNL1       -0.0653
     18 N          64.7538   91.0415   13.3200 N.ar    1  UNL1       -0.2724
     19 C          66.0746   91.7497   13.2579 C.ar    1  UNL1        0.1479
     20 C          67.1557   91.6919   14.2962 C.3     1  UNL1        0.0742
     21 N          66.1246   92.5259   11.9754 N.ar    1  UNL1       -0.1325
     22 N          64.8346   92.2974   11.2447 N.ar    1  UNL1       -0.1221
     23 C          63.9875   91.3800   12.0758 C.ar    1  UNL1        0.1973
     24 C          63.3388   88.3702   16.6535 C.ar    1  UNL1        0.1388
     25 C          63.2294   89.8601   16.7885 C.ar    1  UNL1        0.0384
     26 C          63.7011   90.7505   15.6773 C.ar    1  UNL1        0.0207
     27 C          64.2821   90.1510   14.4312 C.ar    1  UNL1        0.0671
     28 C          64.3915   88.6612   14.2962 C.ar    1  UNL1        0.0207
     29 C          63.9198   87.7708   15.4073 C.ar    1  UNL1        0.0384
     30 C          62.4254   86.0778   17.4662 C.3     1  UNL1        0.2525
     31 O          62.8671   87.4798   17.7647 O.3     1  UNL1       -0.4714
@<TRIPOS>BOND
     1    30    31    1
     2    31    24    1
     3    24    25   ar
     4    25    26   ar
     5    26    27   ar
     6    27    18    1
     7    18    19   ar
     8    19    20    1
     9    19    21   ar
    10    21    22   ar
    11    22    23   ar
    12    23    17    1
    13    17     1    1
    14     1     2    1
    15     2     3   ar
    16     3     4   ar
    17     4     7    1
    18     7     8   ar
    19     8     9   ar
    20     9    10   ar
    21    10    13    1
    22    13    14    1
    23    10    11   ar
    24    11    15    1
    25    15    16    1
    26    11    12   ar
    27     4     5   ar
    28     5     6   ar
    29    27    28   ar
    30    28    29   ar
    31    29    24   ar
    32    23    18   ar
    33     6     2   ar
    34    12     7   ar
@<TRIPOS>MOLECULE
*****
 31 34 0 0 0
SMALL
GASTEIGER

@<TRIPOS>ATOM
      1 C          63.5706   88.7770   16.5332 C.3     1  UNL1        0.1528
      2 C          63.0995   87.3652   16.3461 C.ar    1  UNL1        0.2480
      3 N          63.5055   86.4399   15.2375 N.ar    1  UNL1       -0.1900
      4 C          62.7967   85.1336   15.4410 C.ar    1  UNL1        0.2034
      5 N          61.9527   85.2517   16.6754 N.ar    1  UNL1       -0.0560
      6 O          62.1398   86.6309   17.2347 O.2     1  UNL1       -0.3361
      7 C          62.9118   83.9222   14.5641 C.ar    1  UNL1        0.0423
      8 C          62.1517   82.6747   14.9048 C.ar    1  UNL1        0.0065
      9 C          62.2667   81.4631   14.0279 C.ar    1  UNL1        0.0401
     10 C          63.1419   81.4991   12.8102 C.ar    1  UNL1        0.1724
     11 C          63.9020   82.7465   12.4694 C.ar    1  UNL1        0.1725
     12 C          63.7870   83.9581   13.3463 C.ar    1  UNL1        0.0432
     13 O          63.2569   80.2876   11.9333 O.3     1  UNL1       -0.4684
     14 C          62.8137   80.3530   10.5018 C.3     1  UNL1        0.2526
     15 O          64.7771   82.7824   11.2517 O.3     1  UNL1       -0.4684
     16 C          64.2895   83.4440    9.9970 C.3     1  UNL1        0.2526
     17 S          63.0251   89.8710   15.6642 S.3     1  UNL1       -0.0653
     18 N          64.1562   90.9311   13.4865 N.ar    1  UNL1       -0.2724
     19 C          65.1831   91.9954   13.2361 C.ar    1  UNL1        0.1479
     20 C          65.6821   92.4406   11.8934 C.3     1  UNL1        0.0742
     21 N          65.6233   92.5365   14.5641 N.ar    1  UNL1       -0.1325
     22 N          64.8685   91.8065   15.6352 N.ar    1  UNL1       -0.1221
     23 C          63.9618   90.8143   14.9693 C.ar    1  UNL1        0.1973
     24 C          62.0319   88.5129   10.3418 C.ar    1  UNL1        0.1388
     25 C          62.6794   87.8247   11.5067 C.ar    1  UNL1        0.0384
     26 C          63.3875   88.6308   12.5550 C.ar    1  UNL1        0.0207
     27 C          63.4481   90.1250   12.4383 C.ar    1  UNL1        0.0671
     28 C          62.8006   90.8131   11.2734 C.ar    1  UNL1        0.0207
     29 C          62.0924   90.0071   10.2251 C.ar    1  UNL1        0.0384
     30 C          61.8525   86.3597    8.8990 C.3     1  UNL1        0.2525
     31 O          61.3238   87.7068    9.2935 O.3     1  UNL1       -0.4714
@<TRIPOS>BOND
     1    30    31    1
     2    31    24    1
     3    24    25   ar
     4    25    26   ar
     5    26    27   ar
     6    27    18    1
     7    18    19   ar
     8    19    20    1
     9    19    21   ar
    10    21    22   ar
    11    22    23   ar
    12    23    17    1
    13    17     1    1
    14     1     2    1
    15     2     3   ar
    16     3     4   ar
    17     4     7    1
    18     7     8   ar
    19     8     9   ar
    20     9    10   ar
    21    10    13    1
    22    13    14    1
    23    10    11   ar
    24    11    15    1
    25    15    16    1
    26    11    12   ar
    27     4     5   ar
    28     5     6   ar
    29    27    28   ar
    30    28    29   ar
    31    29    24   ar
    32    23    18   ar
    33     6     2   ar
    34    12     7   ar
@<TRIPOS>MOLECULE
*****
 31 34 0 0 0
SMALL
GASTEIGER

@<TRIPOS>ATOM
      1 C          61.6427   87.6993   10.3869 C.3     1  UNL1        0.1528
      2 C          62.4196   88.7088   11.1790 C.ar    1  UNL1        0.2480
      3 N          63.1249   89.9110   10.6247 N.ar    1  UNL1       -0.1900
      4 C          63.7688   90.6385   11.7677 C.ar    1  UNL1        0.2034
      5 N          63.4613   89.8859   13.0283 N.ar    1  UNL1       -0.0560
      6 O          62.6274   88.6933   12.6645 O.2     1  UNL1       -0.3361
      7 C          64.5779   91.8975   11.6676 C.ar    1  UNL1        0.0423
      8 C          64.6132   92.6661   10.3800 C.ar    1  UNL1        0.0065
      9 C          65.4224   93.9252   10.2798 C.ar    1  UNL1        0.0401
     10 C          66.1964   94.4156   11.4674 C.ar    1  UNL1        0.1724
     11 C          66.1612   93.6471   12.7551 C.ar    1  UNL1        0.1725
     12 C          65.3520   92.3880   12.8552 C.ar    1  UNL1        0.0432
     13 O          67.0056   95.6746   11.3673 O.3     1  UNL1       -0.4684
     14 C          67.1026   96.4018   10.0589 C.3     1  UNL1        0.2526
     15 O          66.9352   94.1376   13.9426 O.3     1  UNL1       -0.4684
     16 C          67.1738   93.2271   15.1105 C.3     1  UNL1        0.2526
     17 S          61.3864   86.3354   10.9561 S.3     1  UNL1       -0.0653
     18 N          63.1480   84.5128   11.8045 N.ar    1  UNL1       -0.2724
     19 C          64.0210   83.4910   11.1384 C.ar    1  UNL1        0.1479
     20 C          64.9589   82.5468   11.8304 C.3     1  UNL1        0.0742
     21 N          63.7914   83.5790    9.6586 N.ar    1  UNL1       -0.1325
     22 N          62.7766   84.6553    9.4102 N.ar    1  UNL1       -0.1221
     23 C          62.3789   85.2324   10.7365 C.ar    1  UNL1        0.1973
     24 C          62.8830   85.2842   16.2300 C.ar    1  UNL1        0.1388
     25 C          63.8558   86.0582   15.3907 C.ar    1  UNL1        0.0384
     26 C          63.9442   85.8011   13.9155 C.ar    1  UNL1        0.0207
     27 C          63.0597   84.7700   13.2797 C.ar    1  UNL1        0.0671
     28 C          62.0868   83.9959   14.1189 C.ar    1  UNL1        0.0207
     29 C          61.9985   84.2531   15.5941 C.ar    1  UNL1        0.0384
     30 C          62.6919   86.9477   18.2165 C.3     1  UNL1        0.2525
     31 O          62.7946   85.5414   17.7051 O.3     1  UNL1       -0.4714
@<TRIPOS>BOND
     1    30    31    1
     2    31    24    1
     3    24    25   ar
     4    25    26   ar
     5    26    27   ar
     6    27    18    1
     7    18    19   ar
     8    19    20    1
     9    19    21   ar
    10    21    22   ar
    11    22    23   ar
    12    23    17    1
    13    17     1    1
    14     1     2    1
    15     2     3   ar
    16     3     4   ar
    17     4     7    1
    18     7     8   ar
    19     8     9   ar
    20     9    10   ar
    21    10    13    1
    22    13    14    1
    23    10    11   ar
    24    11    15    1
    25    15    16    1
    26    11    12   ar
    27     4     5   ar
    28     5     6   ar
    29    27    28   ar
    30    28    29   ar
    31    29    24   ar
    32    23    18   ar
    33     6     2   ar
    34    12     7   ar
