@<TRIPOS>MOLECULE
*****
 45 49 0 0 0
SMALL
GASTEIGER

@<TRIPOS>ATOM
      1 C          60.3170   89.0720   10.7477 C.3     1  UNL1        0.1443
      2 O          59.5475   88.4285   11.8629 O.3     1  UNL1       -0.3813
      3 H          59.6768   88.9356   12.6797 H       1  UNL1        0.2105
      4 C          60.2825   88.4764    9.3715 C.3     1  UNL1        0.1041
      5 C          59.3812   89.2255    7.0528 C.2     1  UNL1        0.2527
      6 O          58.2935   88.1964    7.1431 O.2     1  UNL1       -0.2724
      7 N          60.3756   89.3655    8.1670 N.am    1  UNL1       -0.3012
      8 H          61.0894   90.0409    8.1077 H       1  UNL1        0.1495
      9 C          59.4742   90.1146    5.8483 C.3     1  UNL1        0.2269
     10 C          57.2345   91.1823    5.0778 C.3     1  UNL1        0.1748
     11 O          58.5793   91.3125    5.7293 O.3     1  UNL1       -0.3418
     12 C          60.1550   86.9918    9.1998 C.3     1  UNL1        0.0484
     13 C          61.3078   86.0954    9.5425 C.ar    1  UNL1       -0.0204
     14 C          62.1377   85.4899    8.4495 C.ar    1  UNL1       -0.0042
     15 C          63.2905   84.5935    8.7922 C.ar    1  UNL1       -0.0003
     16 C          63.6134   84.3024   10.2279 C.ar    1  UNL1        0.0020
     17 C          62.7834   84.9079   11.3209 C.ar    1  UNL1        0.0235
     18 C          61.6306   85.8044   10.9782 C.ar    1  UNL1       -0.0022
     19 C          63.1062   84.6169   12.7565 C.ar    1  UNL1        0.1103
     20 N          63.1986   85.6268   13.8616 N.ar    1  UNL1       -0.2426
     21 C          63.5428   84.8989   15.1272 C.ar    1  UNL1        0.0664
     22 C          63.7333   85.5216   16.4785 C.3     1  UNL1        0.0527
     23 C          63.6631   83.4391   14.8042 C.ar    1  UNL1        0.0516
     24 S          63.3933   83.2648   13.3390 S.2     1  UNL1       -0.0663
     25 C          61.1211   90.3112   11.0088 C.3     1  UNL1        0.1001
     26 N          62.6154   90.2285   11.1086 N.3     1  UNL1       -0.2928
     27 H          62.9931   90.8004   10.3531 H       1  UNL1        0.1236
     28 C          63.3082   90.6608   12.3669 C.3     1  UNL1        0.0849
     29 C          62.9457   90.0284   13.6778 C.3     1  UNL1        0.0604
     30 C          63.6384   90.4607   14.9361 C.3     1  UNL1        0.1363
     31 C          62.6684   89.4022   15.3709 C.3     1  UNL1        0.0402
     32 C          63.1257   89.5662   16.7901 C.3     1  UNL1        0.0072
     33 C          64.0956   90.6247   16.3553 C.3     1  UNL1        0.0402
     34 O          64.6935   91.5254   14.8834 O.3     1  UNL1       -0.4676
     35 C          65.0560   92.1579   13.5724 C.ar    1  UNL1        0.2216
     36 N          66.1113   93.2227   13.5198 N.ar    1  UNL1       -0.2107
     37 C          66.4738   93.8552   12.2088 C.ar    1  UNL1        0.0977
     38 C          65.7810   93.4228   10.9505 C.ar    1  UNL1       -0.0031
     39 C          64.7258   92.3580   11.0032 C.ar    1  UNL1       -0.0011
     40 C          64.3633   91.7256   12.3142 C.ar    1  UNL1        0.0449
     41 C          66.1435   94.0553    9.6396 C.3     1  UNL1        0.0279
     42 C          66.6821   95.4549    9.6056 C.3     1  UNL1        0.0041
     43 C          67.9748   94.9437    9.0421 C.3     1  UNL1        0.0003
     44 C          65.3893   95.9661   10.1691 C.3     1  UNL1        0.0003
     45 C          67.2207   96.8544    9.5716 C.3     1  UNL1        0.0003
@<TRIPOS>BOND
     1    10    11    1
     2    11     9    1
     3     9     5    1
     4     5     6    2
     5     5     7   am
     6     7     4    1
     7     4    12    1
     8    12    13    1
     9    13    14   ar
    10    14    15   ar
    11    15    16   ar
    12    16    17   ar
    13    17    19    1
    14    19    20   ar
    15    20    21   ar
    16    21    22    1
    17    21    23   ar
    18    23    24   ar
    19    17    18   ar
    20     4     1    1
    21     1     2    1
    22     1    25    1
    23    25    26    1
    24    28    26    1
    25    28    29    1
    26    29    30    1
    27    30    31    1
    28    31    32    1
    29    32    33    1
    30    30    34    1
    31    34    35    1
    32    35    36   ar
    33    36    37   ar
    34    37    38   ar
    35    38    41    1
    36    41    42    1
    37    42    43    1
    38    42    44    1
    39    42    45    1
    40    38    39   ar
    41    39    40   ar
    42    18    13   ar
    43    40    28    1
    44    24    19   ar
    45    33    30    1
    46    40    35   ar
    47     7     8    1
    48     2     3    1
    49    26    27    1
@<TRIPOS>MOLECULE
*****
 45 49 0 0 0
SMALL
GASTEIGER

@<TRIPOS>ATOM
      1 C          60.7278   89.6079   10.9191 C.3     1  UNL1        0.1443
      2 O          60.1140   89.2197   12.2315 O.3     1  UNL1       -0.3813
      3 H          60.4522   89.8004   12.9310 H       1  UNL1        0.2105
      4 C          60.3663   88.8583    9.6712 C.3     1  UNL1        0.1041
      5 C          59.4206   89.0617    7.2599 C.2     1  UNL1        0.2527
      6 O          58.5954   87.8284    7.4795 O.2     1  UNL1       -0.2724
      7 N          60.3060   89.5766    8.3557 N.am    1  UNL1       -0.3012
      8 H          60.8475   90.3860    8.2116 H       1  UNL1        0.1495
      9 C          59.3602   89.7800    5.9445 C.3     1  UNL1        0.2269
     10 C          58.7906   92.0130    4.7448 C.3     1  UNL1        0.1748
     11 O          58.4740   90.9797    5.7850 O.3     1  UNL1       -0.3418
     12 C          60.0651   87.3904    9.7387 C.3     1  UNL1        0.0484
     13 C          61.1789   86.3908    9.6371 C.ar    1  UNL1       -0.0204
     14 C          61.9391   86.2429    8.3525 C.ar    1  UNL1       -0.0042
     15 C          63.0528   85.2433    8.2509 C.ar    1  UNL1       -0.0003
     16 C          63.4063   84.3915    9.4339 C.ar    1  UNL1        0.0020
     17 C          62.6461   84.5394   10.7185 C.ar    1  UNL1        0.0235
     18 C          61.5324   85.5390   10.8201 C.ar    1  UNL1       -0.0022
     19 C          62.9997   83.6876   11.9015 C.ar    1  UNL1        0.1103
     20 N          62.6176   82.2507   12.0989 N.ar    1  UNL1       -0.2426
     21 C          63.1792   81.7982   13.4142 C.ar    1  UNL1        0.0664
     22 C          63.0366   80.4288   14.0095 C.3     1  UNL1        0.0527
     23 C          63.9083   82.9556   14.0297 C.ar    1  UNL1        0.0516
     24 S          63.7973   84.1233   13.0947 S.2     1  UNL1       -0.0663
     25 C          61.7033   90.7456   10.8546 C.3     1  UNL1        0.1001
     26 N          63.1777   90.4724   10.8914 N.3     1  UNL1       -0.2928
     27 H          63.4824   90.3696    9.9234 H       1  UNL1        0.1236
     28 C          64.1073   91.4578   11.5356 C.3     1  UNL1        0.0849
     29 C          64.8120   92.4828   10.6972 C.3     1  UNL1        0.0604
     30 C          65.7415   93.4682   11.3413 C.3     1  UNL1        0.1363
     31 C          65.7685   93.8067    9.8802 C.3     1  UNL1        0.0402
     32 C          66.7382   94.9177   10.1555 C.3     1  UNL1        0.0072
     33 C          66.7111   94.5791   11.6166 C.3     1  UNL1        0.0402
     34 O          65.9664   93.4286   12.8237 O.3     1  UNL1       -0.4676
     35 C          65.2617   92.4037   13.6622 C.ar    1  UNL1        0.2216
     36 N          65.4866   92.3642   15.1447 N.ar    1  UNL1       -0.2107
     37 C          64.7819   91.3393   15.9831 C.ar    1  UNL1        0.0977
     38 C          63.8523   90.3539   15.3390 C.ar    1  UNL1       -0.0031
     39 C          63.6275   90.3934   13.8565 C.ar    1  UNL1       -0.0011
     40 C          64.3321   91.4183   13.0181 C.ar    1  UNL1        0.0449
     41 C          63.1476   89.3289   16.1774 C.3     1  UNL1        0.0279
     42 C          63.5520   87.8867   16.0961 C.3     1  UNL1        0.0041
     43 C          62.8394   87.6141   17.3875 C.3     1  UNL1        0.0003
     44 C          64.2647   88.1594   14.8046 C.3     1  UNL1        0.0003
     45 C          63.9564   86.4446   16.0149 C.3     1  UNL1        0.0003
@<TRIPOS>BOND
     1    10    11    1
     2    11     9    1
     3     9     5    1
     4     5     6    2
     5     5     7   am
     6     7     4    1
     7     4    12    1
     8    12    13    1
     9    13    14   ar
    10    14    15   ar
    11    15    16   ar
    12    16    17   ar
    13    17    19    1
    14    19    20   ar
    15    20    21   ar
    16    21    22    1
    17    21    23   ar
    18    23    24   ar
    19    17    18   ar
    20     4     1    1
    21     1     2    1
    22     1    25    1
    23    25    26    1
    24    28    26    1
    25    28    29    1
    26    29    30    1
    27    30    31    1
    28    31    32    1
    29    32    33    1
    30    30    34    1
    31    34    35    1
    32    35    36   ar
    33    36    37   ar
    34    37    38   ar
    35    38    41    1
    36    41    42    1
    37    42    43    1
    38    42    44    1
    39    42    45    1
    40    38    39   ar
    41    39    40   ar
    42    18    13   ar
    43    40    28    1
    44    24    19   ar
    45    33    30    1
    46    40    35   ar
    47     7     8    1
    48     2     3    1
    49    26    27    1
@<TRIPOS>MOLECULE
*****
 45 49 0 0 0
SMALL
GASTEIGER

@<TRIPOS>ATOM
      1 C          60.0282   89.0864   10.7499 C.3     1  UNL1        0.1443
      2 O          59.3791   90.1193   11.6227 O.3     1  UNL1       -0.3813
      3 H          58.8411   89.6791   12.2992 H       1  UNL1        0.2105
      4 C          60.9183   89.5115    9.6199 C.3     1  UNL1        0.1041
      5 C          59.5062   89.2573    7.4539 C.2     1  UNL1        0.2527
      6 O          59.2859   87.8071    7.7677 O.2     1  UNL1       -0.2724
      7 N          60.3224   90.1095    8.3800 N.am    1  UNL1       -0.3012
      8 H          60.4670   91.0613    8.1740 H       1  UNL1        0.1495
      9 C          58.9104   89.8554    6.2140 C.3     1  UNL1        0.2269
     10 C          59.2923   91.9520    4.7280 C.3     1  UNL1        0.1748
     11 O          59.7734   90.6386    5.2697 O.3     1  UNL1       -0.3418
     12 C          62.4042   89.3385    9.7297 C.3     1  UNL1        0.0484
     13 C          63.1727   90.0974   10.7705 C.ar    1  UNL1       -0.0204
     14 C          63.1274   89.6592   12.2043 C.ar    1  UNL1       -0.0042
     15 C          63.8960   90.4181   13.2452 C.ar    1  UNL1       -0.0003
     16 C          64.7098   91.6153   12.8522 C.ar    1  UNL1        0.0020
     17 C          64.7551   92.0536   11.4184 C.ar    1  UNL1        0.0235
     18 C          63.9866   91.2947   10.3775 C.ar    1  UNL1       -0.0022
     19 C          65.5689   93.2508   11.0254 C.ar    1  UNL1        0.1103
     20 N          66.1213   93.5315    9.6595 N.ar    1  UNL1       -0.2426
     21 C          66.8670   94.8317    9.7193 C.ar    1  UNL1        0.0664
     22 C          67.5793   95.4930    8.5768 C.3     1  UNL1        0.0527
     23 C          66.7754   95.3545   11.1222 C.ar    1  UNL1        0.0516
     24 S          65.9731   94.3774   11.9295 S.2     1  UNL1       -0.0663
     25 C          59.7873   87.6284   11.0073 C.3     1  UNL1        0.1001
     26 N          60.8816   86.7770   11.5796 N.3     1  UNL1       -0.2928
     27 H          60.4520   86.1827   12.2886 H       1  UNL1        0.1236
     28 C          61.6772   85.8753   10.6829 C.3     1  UNL1        0.0849
     29 C          61.4287   85.8796    9.2036 C.3     1  UNL1        0.0604
     30 C          62.2242   84.9779    8.3069 C.3     1  UNL1        0.1363
     31 C          61.2974   85.7189    7.3891 C.3     1  UNL1        0.0402
     32 C          61.8727   84.9840    6.2148 C.3     1  UNL1        0.0072
     33 C          62.7995   84.2430    7.1325 C.3     1  UNL1        0.0402
     34 O          63.2682   84.0721    8.8894 O.3     1  UNL1       -0.4676
     35 C          63.5167   84.0678   10.3687 C.ar    1  UNL1        0.2216
     36 N          64.5608   83.1619   10.9512 N.ar    1  UNL1       -0.2107
     37 C          64.8093   83.1576   12.4304 C.ar    1  UNL1        0.0977
     38 C          64.0137   84.0593   13.3272 C.ar    1  UNL1       -0.0031
     39 C          62.9697   84.9652   12.7447 C.ar    1  UNL1       -0.0011
     40 C          62.7212   84.9694   11.2654 C.ar    1  UNL1        0.0449
     41 C          64.2623   84.0551   14.8064 C.3     1  UNL1        0.0279
     42 C          63.8524   85.2335   15.6392 C.3     1  UNL1        0.0041
     43 C          62.6628   84.4677   16.1374 C.3     1  UNL1        0.0003
     44 C          65.0422   85.9993   15.1410 C.3     1  UNL1        0.0003
     45 C          63.4426   86.4119   16.4719 C.3     1  UNL1        0.0003
@<TRIPOS>BOND
     1    10    11    1
     2    11     9    1
     3     9     5    1
     4     5     6    2
     5     5     7   am
     6     7     4    1
     7     4    12    1
     8    12    13    1
     9    13    14   ar
    10    14    15   ar
    11    15    16   ar
    12    16    17   ar
    13    17    19    1
    14    19    20   ar
    15    20    21   ar
    16    21    22    1
    17    21    23   ar
    18    23    24   ar
    19    17    18   ar
    20     4     1    1
    21     1     2    1
    22     1    25    1
    23    25    26    1
    24    28    26    1
    25    28    29    1
    26    29    30    1
    27    30    31    1
    28    31    32    1
    29    32    33    1
    30    30    34    1
    31    34    35    1
    32    35    36   ar
    33    36    37   ar
    34    37    38   ar
    35    38    41    1
    36    41    42    1
    37    42    43    1
    38    42    44    1
    39    42    45    1
    40    38    39   ar
    41    39    40   ar
    42    18    13   ar
    43    40    28    1
    44    24    19   ar
    45    33    30    1
    46    40    35   ar
    47     7     8    1
    48     2     3    1
    49    26    27    1
@<TRIPOS>MOLECULE
*****
 45 49 0 0 0
SMALL
GASTEIGER

@<TRIPOS>ATOM
      1 C          63.3250   91.0384   12.1556 C.3     1  UNL1        0.1443
      2 O          62.2251   90.4899   13.0155 O.3     1  UNL1       -0.3813
      3 H          61.5176   90.1402   12.4514 H       1  UNL1        0.2105
      4 C          64.5431   91.6414   12.7901 C.3     1  UNL1        0.1041
      5 C          66.0030   93.1980   11.3083 C.2     1  UNL1        0.2527
      6 O          66.5721   91.9989   10.6094 O.2     1  UNL1       -0.2724
      7 N          64.9885   93.0192   12.3986 N.am    1  UNL1       -0.3012
      8 H          64.6150   93.8062   12.8573 H       1  UNL1        0.1495
      9 C          66.4484   94.5758   10.9169 C.3     1  UNL1        0.2269
     10 C          67.5291   95.0774    8.6080 C.3     1  UNL1        0.1748
     11 O          67.6708   94.7554   10.0662 O.3     1  UNL1       -0.3418
     12 C          65.3157   90.8666   13.8160 C.3     1  UNL1        0.0484
     13 C          64.5974   89.9492   14.7607 C.ar    1  UNL1       -0.0204
     14 C          63.8753   90.5119   15.9489 C.ar    1  UNL1       -0.0042
     15 C          63.1570   89.5945   16.8936 C.ar    1  UNL1       -0.0003
     16 C          63.1608   88.1144   16.6501 C.ar    1  UNL1        0.0020
     17 C          63.8830   87.5517   15.4619 C.ar    1  UNL1        0.0235
     18 C          64.6013   88.4690   14.5172 C.ar    1  UNL1       -0.0022
     19 C          63.8869   86.0716   15.2184 C.ar    1  UNL1        0.1103
     20 N          62.6895   85.1690   15.2548 N.ar    1  UNL1       -0.2426
     21 C          63.1514   83.7738   14.9547 C.ar    1  UNL1        0.0664
     22 C          62.2829   82.5526   14.8882 C.3     1  UNL1        0.0527
     23 C          64.6343   83.8142   14.7326 C.ar    1  UNL1        0.0516
     24 S          65.0888   85.2343   14.8956 S.2     1  UNL1       -0.0663
     25 C          63.2067   90.9839   10.6612 C.3     1  UNL1        0.1001
     26 N          61.9122   90.5712   10.0259 N.3     1  UNL1       -0.2928
     27 H          61.9016   90.9756    9.0895 H       1  UNL1        0.1236
     28 C          61.5823   89.1159    9.8728 C.3     1  UNL1        0.0849
     29 C          62.2482   88.0994   10.7521 C.3     1  UNL1        0.0604
     30 C          61.9184   86.6442   10.5990 C.3     1  UNL1        0.1363
     31 C          62.9306   86.6986   11.7048 C.3     1  UNL1        0.0402
     32 C          62.8603   85.2065   11.8426 C.3     1  UNL1        0.0072
     33 C          61.8481   85.1521   10.7369 C.3     1  UNL1        0.0402
     34 O          60.9225   86.2055    9.5667 O.3     1  UNL1       -0.4676
     35 C          60.2565   87.2220    8.6874 C.ar    1  UNL1        0.2216
     36 N          59.2606   86.7832    7.6551 N.ar    1  UNL1       -0.2107
     37 C          58.5946   87.7997    6.7758 C.ar    1  UNL1        0.0977
     38 C          58.9245   89.2550    6.9288 C.ar    1  UNL1       -0.0031
     39 C          59.9204   89.6937    7.9612 C.ar    1  UNL1       -0.0011
     40 C          60.5864   88.6772    8.8405 C.ar    1  UNL1        0.0449
     41 C          58.2585   90.2715    6.0496 C.3     1  UNL1        0.0279
     42 C          59.0856   91.1439    5.1522 C.3     1  UNL1        0.0041
     43 C          60.3040   90.3373    5.4912 C.3     1  UNL1        0.0003
     44 C          57.8670   91.9504    4.8132 C.3     1  UNL1        0.0003
     45 C          59.9126   92.0161    4.2549 C.3     1  UNL1        0.0003
@<TRIPOS>BOND
     1    10    11    1
     2    11     9    1
     3     9     5    1
     4     5     6    2
     5     5     7   am
     6     7     4    1
     7     4    12    1
     8    12    13    1
     9    13    14   ar
    10    14    15   ar
    11    15    16   ar
    12    16    17   ar
    13    17    19    1
    14    19    20   ar
    15    20    21   ar
    16    21    22    1
    17    21    23   ar
    18    23    24   ar
    19    17    18   ar
    20     4     1    1
    21     1     2    1
    22     1    25    1
    23    25    26    1
    24    28    26    1
    25    28    29    1
    26    29    30    1
    27    30    31    1
    28    31    32    1
    29    32    33    1
    30    30    34    1
    31    34    35    1
    32    35    36   ar
    33    36    37   ar
    34    37    38   ar
    35    38    41    1
    36    41    42    1
    37    42    43    1
    38    42    44    1
    39    42    45    1
    40    38    39   ar
    41    39    40   ar
    42    18    13   ar
    43    40    28    1
    44    24    19   ar
    45    33    30    1
    46    40    35   ar
    47     7     8    1
    48     2     3    1
    49    26    27    1
@<TRIPOS>MOLECULE
*****
 45 49 0 0 0
SMALL
GASTEIGER

@<TRIPOS>ATOM
      1 C          60.4447   89.2544   10.9815 C.3     1  UNL1        0.1443
      2 O          60.1004   90.1840   12.1072 O.3     1  UNL1       -0.3813
      3 H          59.5798   89.7073   12.7725 H       1  UNL1        0.2105
      4 C          61.2508   89.7514    9.8183 C.3     1  UNL1        0.1041
      5 C          59.5802   88.9469    7.9985 C.2     1  UNL1        0.2527
      6 O          59.2101   87.7737    8.8568 O.2     1  UNL1       -0.2724
      7 N          60.6005   89.9357    8.4792 N.am    1  UNL1       -0.3012
      8 H          60.8434   90.7057    7.9159 H       1  UNL1        0.1495
      9 C          58.9299   89.1312    6.6594 C.3     1  UNL1        0.2269
     10 C          58.6581   91.3338    5.3085 C.3     1  UNL1        0.1748
     11 O          59.4781   90.1377    5.6916 O.3     1  UNL1       -0.3418
     12 C          62.7073   90.0640    9.9942 C.3     1  UNL1        0.0484
     13 C          63.3357   89.9706   11.3530 C.ar    1  UNL1       -0.0204
     14 C          63.0590   88.7836   12.2273 C.ar    1  UNL1       -0.0042
     15 C          63.6874   88.6901   13.5861 C.ar    1  UNL1       -0.0003
     16 C          64.5925   89.7837   14.0706 C.ar    1  UNL1        0.0020
     17 C          64.8693   90.9708   13.1963 C.ar    1  UNL1        0.0235
     18 C          64.2409   91.0642   11.8375 C.ar    1  UNL1       -0.0022
     19 C          65.7744   92.0643   13.6808 C.ar    1  UNL1        0.1103
     20 N          66.7532   91.9620   14.8128 N.ar    1  UNL1       -0.2426
     21 C          67.4434   93.2866   14.9500 C.ar    1  UNL1        0.0664
     22 C          68.5003   93.6300   15.9575 C.3     1  UNL1        0.0527
     23 C          66.8912   94.2077   13.9028 C.ar    1  UNL1        0.0516
     24 S          65.8597   93.4523   13.1184 S.2     1  UNL1       -0.0663
     25 C          59.9829   87.8277   11.0190 C.3     1  UNL1        0.1001
     26 N          60.8672   86.7683   11.6070 N.3     1  UNL1       -0.2928
     27 H          60.2677   86.1613   12.1661 H       1  UNL1        0.1236
     28 C          61.6684   85.8754   10.7066 C.3     1  UNL1        0.0849
     29 C          61.4365   85.9016    9.2249 C.3     1  UNL1        0.0604
     30 C          62.2376   85.0087    8.3244 C.3     1  UNL1        0.1363
     31 C          61.3248   85.7670    7.4069 C.3     1  UNL1        0.0402
     32 C          61.9096   85.0457    6.2289 C.3     1  UNL1        0.0072
     33 C          62.8225   84.2874    7.1464 C.3     1  UNL1        0.0402
     34 O          63.2707   84.0896    8.9057 O.3     1  UNL1       -0.4676
     35 C          63.5027   84.0634   10.3875 C.ar    1  UNL1        0.2216
     36 N          64.5358   83.1443   10.9688 N.ar    1  UNL1       -0.2107
     37 C          64.7678   83.1181   12.4505 C.ar    1  UNL1        0.0977
     38 C          63.9665   84.0110   13.3509 C.ar    1  UNL1       -0.0031
     39 C          62.9334   84.9301   12.7696 C.ar    1  UNL1       -0.0011
     40 C          62.7015   84.9563   11.2879 C.ar    1  UNL1        0.0449
     41 C          64.1984   83.9848   14.8327 C.3     1  UNL1        0.0279
     42 C          63.8501   85.1814   15.6676 C.3     1  UNL1        0.0041
     43 C          62.5629   84.5254   16.0707 C.3     1  UNL1        0.0003
     44 C          65.1374   85.8375   15.2644 C.3     1  UNL1        0.0003
     45 C          63.5018   86.3779   16.5024 C.3     1  UNL1        0.0003
@<TRIPOS>BOND
     1    10    11    1
     2    11     9    1
     3     9     5    1
     4     5     6    2
     5     5     7   am
     6     7     4    1
     7     4    12    1
     8    12    13    1
     9    13    14   ar
    10    14    15   ar
    11    15    16   ar
    12    16    17   ar
    13    17    19    1
    14    19    20   ar
    15    20    21   ar
    16    21    22    1
    17    21    23   ar
    18    23    24   ar
    19    17    18   ar
    20     4     1    1
    21     1     2    1
    22     1    25    1
    23    25    26    1
    24    28    26    1
    25    28    29    1
    26    29    30    1
    27    30    31    1
    28    31    32    1
    29    32    33    1
    30    30    34    1
    31    34    35    1
    32    35    36   ar
    33    36    37   ar
    34    37    38   ar
    35    38    41    1
    36    41    42    1
    37    42    43    1
    38    42    44    1
    39    42    45    1
    40    38    39   ar
    41    39    40   ar
    42    18    13   ar
    43    40    28    1
    44    24    19   ar
    45    33    30    1
    46    40    35   ar
    47     7     8    1
    48     2     3    1
    49    26    27    1
@<TRIPOS>MOLECULE
*****
 45 49 0 0 0
SMALL
GASTEIGER

@<TRIPOS>ATOM
      1 C          59.8945   86.8898    8.2360 C.3     1  UNL1        0.1443
      2 O          58.8597   86.1339    7.4563 O.3     1  UNL1       -0.3813
      3 H          58.9306   85.1877    7.6575 H       1  UNL1        0.2105
      4 C          59.9942   88.3804    8.1013 C.3     1  UNL1        0.1041
      5 C          60.4910   90.0552   10.0244 C.2     1  UNL1        0.2527
      6 O          61.9589   89.9555    9.7321 O.2     1  UNL1       -0.2724
      7 N          59.5087   89.2677    9.2091 N.am    1  UNL1       -0.3012
      8 H          58.5453   89.3331    9.4009 H       1  UNL1        0.1495
      9 C          60.0055   90.9424   11.1322 C.3     1  UNL1        0.2269
     10 C          58.7823   89.2774   12.7074 C.3     1  UNL1        0.1748
     11 O          58.7916   90.5568   11.9246 O.3     1  UNL1       -0.3418
     12 C          60.5795   88.9837    6.8590 C.3     1  UNL1        0.0484
     13 C          59.7759   89.9558    6.0470 C.ar    1  UNL1       -0.0204
     14 C          58.2859   90.0166    6.2088 C.ar    1  UNL1       -0.0042
     15 C          57.4824   90.9886    5.3967 C.ar    1  UNL1       -0.0003
     16 C          58.1688   91.8998    4.4228 C.ar    1  UNL1        0.0020
     17 C          59.6588   91.8390    4.2609 C.ar    1  UNL1        0.0235
     18 C          60.4624   90.8670    5.0730 C.ar    1  UNL1       -0.0022
     19 C          60.3452   92.7502    3.2870 C.ar    1  UNL1        0.1103
     20 N          59.8544   94.0959    2.8423 N.ar    1  UNL1       -0.2426
     21 C          60.8488   94.6531    1.8673 C.ar    1  UNL1        0.0664
     22 C          60.7543   95.9789    1.1721 C.3     1  UNL1        0.0527
     23 C          61.9542   93.6516    1.7094 C.ar    1  UNL1        0.0516
     24 S          61.6430   92.4755    2.5869 S.2     1  UNL1       -0.0663
     25 C          60.8296   86.1551    9.1502 C.3     1  UNL1        0.1001
     26 N          61.7581   86.9202   10.0460 N.3     1  UNL1       -0.2928
     27 H          61.2244   87.7031   10.4235 H       1  UNL1        0.1236
     28 C          62.4078   86.2365   11.2124 C.3     1  UNL1        0.0849
     29 C          62.4281   84.7385   11.2876 C.3     1  UNL1        0.0604
     30 C          63.0777   84.0548   12.4539 C.3     1  UNL1        0.1363
     31 C          62.5698   82.9422   11.5854 C.3     1  UNL1        0.0402
     32 C          63.1064   81.9362   12.5602 C.3     1  UNL1        0.0072
     33 C          63.6143   83.0488   13.4287 C.3     1  UNL1        0.0402
     34 O          63.7072   84.8690   13.5451 O.3     1  UNL1       -0.4676
     35 C          63.6869   86.3670   13.4699 C.ar    1  UNL1        0.2216
     36 N          64.3164   87.1813   14.5612 N.ar    1  UNL1       -0.2107
     37 C          64.2962   88.6793   14.4860 C.ar    1  UNL1        0.0977
     38 C          63.6464   89.3630   13.3196 C.ar    1  UNL1       -0.0031
     39 C          63.0170   88.5487   12.2284 C.ar    1  UNL1       -0.0011
     40 C          63.0372   87.0507   12.3036 C.ar    1  UNL1        0.0449
     41 C          63.6262   90.8610   13.2444 C.3     1  UNL1        0.0279
     42 C          64.8530   91.6067   12.8097 C.3     1  UNL1        0.0041
     43 C          64.3247   91.6578   11.4068 C.3     1  UNL1        0.0003
     44 C          65.3812   91.5556   14.2127 C.3     1  UNL1        0.0003
     45 C          66.0797   92.3525   12.3750 C.3     1  UNL1        0.0003
@<TRIPOS>BOND
     1    10    11    1
     2    11     9    1
     3     9     5    1
     4     5     6    2
     5     5     7   am
     6     7     4    1
     7     4    12    1
     8    12    13    1
     9    13    14   ar
    10    14    15   ar
    11    15    16   ar
    12    16    17   ar
    13    17    19    1
    14    19    20   ar
    15    20    21   ar
    16    21    22    1
    17    21    23   ar
    18    23    24   ar
    19    17    18   ar
    20     4     1    1
    21     1     2    1
    22     1    25    1
    23    25    26    1
    24    28    26    1
    25    28    29    1
    26    29    30    1
    27    30    31    1
    28    31    32    1
    29    32    33    1
    30    30    34    1
    31    34    35    1
    32    35    36   ar
    33    36    37   ar
    34    37    38   ar
    35    38    41    1
    36    41    42    1
    37    42    43    1
    38    42    44    1
    39    42    45    1
    40    38    39   ar
    41    39    40   ar
    42    18    13   ar
    43    40    28    1
    44    24    19   ar
    45    33    30    1
    46    40    35   ar
    47     7     8    1
    48     2     3    1
    49    26    27    1
@<TRIPOS>MOLECULE
*****
 45 49 0 0 0
SMALL
GASTEIGER

@<TRIPOS>ATOM
      1 C          63.2881   88.6269   13.1636 C.3     1  UNL1        0.1443
      2 O          63.7889   87.2345   12.9178 O.3     1  UNL1       -0.3813
      3 H          63.4484   86.9137   12.0681 H       1  UNL1        0.2105
      4 C          63.6747   89.3525   14.4182 C.3     1  UNL1        0.1041
      5 C          62.6776   88.4804   16.6531 C.2     1  UNL1        0.2527
      6 O          61.3637   89.1215   16.3172 O.2     1  UNL1       -0.2724
      7 N          63.8330   88.5959   15.7037 N.am    1  UNL1       -0.3012
      8 H          64.6953   88.1751   15.9242 H       1  UNL1        0.1495
      9 C          62.8359   87.7238   17.9386 C.3     1  UNL1        0.2269
     10 C          62.1930   85.4943   16.7697 C.3     1  UNL1        0.1748
     11 O          62.4014   86.2905   18.0237 O.3     1  UNL1       -0.3418
     12 C          63.9031   90.8346   14.3873 C.3     1  UNL1        0.0484
     13 C          65.2739   91.3767   14.1100 C.ar    1  UNL1       -0.0204
     14 C          66.3169   91.3658   15.1880 C.ar    1  UNL1       -0.0042
     15 C          67.6878   91.9079   14.9107 C.ar    1  UNL1       -0.0003
     16 C          68.0157   92.4608   13.5555 C.ar    1  UNL1        0.0020
     17 C          66.9727   92.4718   12.4775 C.ar    1  UNL1        0.0235
     18 C          65.6018   91.9297   12.7547 C.ar    1  UNL1       -0.0022
     19 C          67.3005   93.0248   11.1222 C.ar    1  UNL1        0.1103
     20 N          67.0096   94.4162   10.6438 N.ar    1  UNL1       -0.2426
     21 C          67.5062   94.5348    9.2334 C.ar    1  UNL1        0.0664
     22 C          67.4200   95.7570    8.3681 C.3     1  UNL1        0.0527
     23 C          68.1041   93.2166    8.8401 C.ar    1  UNL1        0.0516
     24 S          67.9770   92.2833   10.0075 S.2     1  UNL1       -0.0663
     25 C          62.4006   89.2938   12.1547 C.3     1  UNL1        0.1001
     26 N          61.1222   88.6349   11.7286 N.3     1  UNL1       -0.2928
     27 H          60.3733   89.3053   11.9024 H       1  UNL1        0.1236
     28 C          60.9584   88.1592   10.3155 C.3     1  UNL1        0.0849
     29 C          60.1954   88.9913    9.3278 C.3     1  UNL1        0.0604
     30 C          60.0315   88.5157    7.9147 C.3     1  UNL1        0.1363
     31 C          59.3142   89.8321    7.9669 C.3     1  UNL1        0.0402
     32 C          58.9524   89.6925    6.5179 C.3     1  UNL1        0.0072
     33 C          59.6696   88.3760    6.4657 C.3     1  UNL1        0.0402
     34 O          60.6306   87.2080    7.4893 O.3     1  UNL1       -0.4676
     35 C          61.3936   86.3760    8.4770 C.ar    1  UNL1        0.2216
     36 N          61.9927   85.0682    8.0515 N.ar    1  UNL1       -0.2107
     37 C          62.7557   84.2362    9.0391 C.ar    1  UNL1        0.0977
     38 C          62.9195   84.7118   10.4523 C.ar    1  UNL1       -0.0031
     39 C          62.3204   86.0195   10.8777 C.ar    1  UNL1       -0.0011
     40 C          61.5575   86.8516    9.8901 C.ar    1  UNL1        0.0449
     41 C          63.6825   83.8798   11.4400 C.3     1  UNL1        0.0279
     42 C          62.9704   82.8392   12.2526 C.3     1  UNL1        0.0041
     43 C          62.7226   83.8514   13.3315 C.3     1  UNL1        0.0003
     44 C          63.2182   81.8270   11.1736 C.3     1  UNL1        0.0003
     45 C          62.2583   81.7988   13.0652 C.3     1  UNL1        0.0003
@<TRIPOS>BOND
     1    10    11    1
     2    11     9    1
     3     9     5    1
     4     5     6    2
     5     5     7   am
     6     7     4    1
     7     4    12    1
     8    12    13    1
     9    13    14   ar
    10    14    15   ar
    11    15    16   ar
    12    16    17   ar
    13    17    19    1
    14    19    20   ar
    15    20    21   ar
    16    21    22    1
    17    21    23   ar
    18    23    24   ar
    19    17    18   ar
    20     4     1    1
    21     1     2    1
    22     1    25    1
    23    25    26    1
    24    28    26    1
    25    28    29    1
    26    29    30    1
    27    30    31    1
    28    31    32    1
    29    32    33    1
    30    30    34    1
    31    34    35    1
    32    35    36   ar
    33    36    37   ar
    34    37    38   ar
    35    38    41    1
    36    41    42    1
    37    42    43    1
    38    42    44    1
    39    42    45    1
    40    38    39   ar
    41    39    40   ar
    42    18    13   ar
    43    40    28    1
    44    24    19   ar
    45    33    30    1
    46    40    35   ar
    47     7     8    1
    48     2     3    1
    49    26    27    1
@<TRIPOS>MOLECULE
*****
 45 49 0 0 0
SMALL
GASTEIGER

@<TRIPOS>ATOM
      1 C          60.4490   88.9794   10.7621 C.3     1  UNL1        0.1443
      2 O          59.0983   89.4969   11.1594 O.3     1  UNL1       -0.3813
      3 H          58.7908   89.0251   11.9492 H       1  UNL1        0.2105
      4 C          61.1475   89.5493    9.5633 C.3     1  UNL1        0.1041
      5 C          59.3962   89.0795    7.7025 C.2     1  UNL1        0.2527
      6 O          59.2406   87.6743    8.2038 O.2     1  UNL1       -0.2724
      7 N          60.3497   90.0170    8.3823 N.am    1  UNL1       -0.3012
      8 H          60.4518   90.9392    8.0533 H       1  UNL1        0.1495
      9 C          58.5984   89.5472    6.5216 C.3     1  UNL1        0.2269
     10 C          58.6935   91.6868    5.0507 C.3     1  UNL1        0.1748
     11 O          59.2584   90.3536    5.4425 O.3     1  UNL1       -0.3418
     12 C          62.6439   89.6514    9.5454 C.3     1  UNL1        0.0484
     13 C          63.3537   90.4504   10.5979 C.ar    1  UNL1       -0.0204
     14 C          64.2121   91.6155   10.2034 C.ar    1  UNL1       -0.0042
     15 C          64.9220   92.4144   11.2559 C.ar    1  UNL1       -0.0003
     16 C          64.7734   92.0483   12.7029 C.ar    1  UNL1        0.0020
     17 C          63.9150   90.8831   13.0975 C.ar    1  UNL1        0.0235
     18 C          63.2052   90.0842   12.0450 C.ar    1  UNL1       -0.0022
     19 C          63.7664   90.5170   14.5445 C.ar    1  UNL1        0.1103
     20 N          63.3031   89.1931   15.0759 N.ar    1  UNL1       -0.2426
     21 C          63.3054   89.2684   16.5740 C.ar    1  UNL1        0.0664
     22 C          62.9121   88.1666   17.5127 C.3     1  UNL1        0.0527
     23 C          63.7703   90.6389   16.9685 C.ar    1  UNL1        0.0516
     24 S          64.0552   91.4106   15.7141 S.2     1  UNL1       -0.0663
     25 C          61.1011   87.8921   11.5637 C.3     1  UNL1        0.1001
     26 N          60.7595   86.4561   11.2972 N.3     1  UNL1       -0.2928
     27 H          59.8071   86.4428   10.9324 H       1  UNL1        0.1236
     28 C          61.5973   85.6492   10.3501 C.3     1  UNL1        0.0849
     29 C          61.3198   85.6962    8.8767 C.3     1  UNL1        0.0604
     30 C          62.1575   84.8893    7.9296 C.3     1  UNL1        0.1363
     31 C          61.1639   85.6007    7.0596 C.3     1  UNL1        0.0402
     32 C          61.7650   84.9559    5.8459 C.3     1  UNL1        0.0072
     33 C          62.7586   84.2445    6.7159 C.3     1  UNL1        0.0402
     34 O          63.2728   84.0354    8.4558 O.3     1  UNL1       -0.4676
     35 C          63.5503   83.9884    9.9291 C.ar    1  UNL1        0.2216
     36 N          64.6657   83.1344   10.4553 N.ar    1  UNL1       -0.2107
     37 C          64.9432   83.0873   11.9287 C.ar    1  UNL1        0.0977
     38 C          64.1054   83.8942   12.8758 C.ar    1  UNL1       -0.0031
     39 C          62.9901   84.7482   12.3496 C.ar    1  UNL1       -0.0011
     40 C          62.7126   84.7952   10.8763 C.ar    1  UNL1        0.0449
     41 C          64.3830   83.8472   14.3492 C.3     1  UNL1        0.0279
     42 C          63.3814   84.4006   15.3191 C.3     1  UNL1        0.0041
     43 C          64.2150   85.6379   15.4740 C.3     1  UNL1        0.0003
     44 C          62.5476   83.1632   15.1641 C.3     1  UNL1        0.0003
     45 C          62.3798   84.9540   16.2890 C.3     1  UNL1        0.0003
@<TRIPOS>BOND
     1    10    11    1
     2    11     9    1
     3     9     5    1
     4     5     6    2
     5     5     7   am
     6     7     4    1
     7     4    12    1
     8    12    13    1
     9    13    14   ar
    10    14    15   ar
    11    15    16   ar
    12    16    17   ar
    13    17    19    1
    14    19    20   ar
    15    20    21   ar
    16    21    22    1
    17    21    23   ar
    18    23    24   ar
    19    17    18   ar
    20     4     1    1
    21     1     2    1
    22     1    25    1
    23    25    26    1
    24    28    26    1
    25    28    29    1
    26    29    30    1
    27    30    31    1
    28    31    32    1
    29    32    33    1
    30    30    34    1
    31    34    35    1
    32    35    36   ar
    33    36    37   ar
    34    37    38   ar
    35    38    41    1
    36    41    42    1
    37    42    43    1
    38    42    44    1
    39    42    45    1
    40    38    39   ar
    41    39    40   ar
    42    18    13   ar
    43    40    28    1
    44    24    19   ar
    45    33    30    1
    46    40    35   ar
    47     7     8    1
    48     2     3    1
    49    26    27    1
@<TRIPOS>MOLECULE
*****
 45 49 0 0 0
SMALL
GASTEIGER

@<TRIPOS>ATOM
      1 C          62.3087   85.1768    8.3847 C.3     1  UNL1        0.1443
      2 O          62.2553   84.7531    6.9468 O.3     1  UNL1       -0.3813
      3 H          62.8261   83.9799    6.8161 H       1  UNL1        0.2105
      4 C          61.5082   86.3572    8.8490 C.3     1  UNL1        0.1041
      5 C          59.4706   87.4883    7.7006 C.2     1  UNL1        0.2527
      6 O          58.5400   86.6771    8.5528 O.2     1  UNL1       -0.2724
      7 N          60.9546   87.3283    7.8488 N.am    1  UNL1       -0.3012
      8 H          61.5653   87.8607    7.2895 H       1  UNL1        0.1495
      9 C          58.9170   88.4593    6.7003 C.3     1  UNL1        0.2269
     10 C          59.0691   90.7516    5.4869 C.3     1  UNL1        0.1748
     11 O          59.4821   89.8459    6.6090 O.3     1  UNL1       -0.3418
     12 C          61.2612   86.5666   10.3137 C.3     1  UNL1        0.0484
     13 C          61.1365   87.9572   10.8619 C.ar    1  UNL1       -0.0204
     14 C          59.8140   88.4457   11.3741 C.ar    1  UNL1       -0.0042
     15 C          59.6893   89.8363   11.9224 C.ar    1  UNL1       -0.0003
     16 C          60.8871   90.7385   11.9585 C.ar    1  UNL1        0.0020
     17 C          62.2097   90.2500   11.4464 C.ar    1  UNL1        0.0235
     18 C          62.3344   88.8594   10.8981 C.ar    1  UNL1       -0.0022
     19 C          63.4075   91.1522   11.4825 C.ar    1  UNL1        0.1103
     20 N          64.1199   91.6228   12.7157 N.ar    1  UNL1       -0.2426
     21 C          65.2559   92.5036   12.2871 C.ar    1  UNL1        0.0664
     22 C          66.2310   93.1902   13.1969 C.3     1  UNL1        0.0527
     23 C          65.2456   92.5773   10.7890 C.ar    1  UNL1        0.0516
     24 S          64.1032   91.7420   10.2917 S.2     1  UNL1       -0.0663
     25 C          63.1627   84.4199    9.3584 C.3     1  UNL1        0.1001
     26 N          63.3265   84.9236   10.7617 N.3     1  UNL1       -0.2928
     27 H          62.5793   85.5993   10.9211 H       1  UNL1        0.1236
     28 C          63.2934   83.9619   11.9124 C.3     1  UNL1        0.0849
     29 C          62.9706   82.5167   11.6730 C.3     1  UNL1        0.0604
     30 C          62.9374   81.5550   12.8236 C.3     1  UNL1        0.1363
     31 C          62.6044   80.7283   11.6170 C.3     1  UNL1        0.0402
     32 C          62.4809   79.5112   12.4850 C.3     1  UNL1        0.0072
     33 C          62.8139   80.3378   13.6916 C.3     1  UNL1        0.0402
     34 O          63.2271   82.0385   14.2137 O.3     1  UNL1       -0.4676
     35 C          63.5499   83.4836   14.4531 C.ar    1  UNL1        0.2216
     36 N          63.8396   83.9670   15.8433 N.ar    1  UNL1       -0.2107
     37 C          64.1624   85.4122   16.0827 C.ar    1  UNL1        0.0977
     38 C          64.1955   86.3739   14.9320 C.ar    1  UNL1       -0.0031
     39 C          63.9059   85.8905   13.5419 C.ar    1  UNL1       -0.0011
     40 C          63.5831   84.4453   13.3025 C.ar    1  UNL1        0.0449
     41 C          64.5184   87.8191   15.1714 C.3     1  UNL1        0.0279
     42 C          63.5159   88.7102   15.8431 C.3     1  UNL1        0.0041
     43 C          63.8058   89.7900   14.8432 C.3     1  UNL1        0.0003
     44 C          63.2260   87.6303   16.8431 C.3     1  UNL1        0.0003
     45 C          62.5135   89.6013   16.5148 C.3     1  UNL1        0.0003
@<TRIPOS>BOND
     1    10    11    1
     2    11     9    1
     3     9     5    1
     4     5     6    2
     5     5     7   am
     6     7     4    1
     7     4    12    1
     8    12    13    1
     9    13    14   ar
    10    14    15   ar
    11    15    16   ar
    12    16    17   ar
    13    17    19    1
    14    19    20   ar
    15    20    21   ar
    16    21    22    1
    17    21    23   ar
    18    23    24   ar
    19    17    18   ar
    20     4     1    1
    21     1     2    1
    22     1    25    1
    23    25    26    1
    24    28    26    1
    25    28    29    1
    26    29    30    1
    27    30    31    1
    28    31    32    1
    29    32    33    1
    30    30    34    1
    31    34    35    1
    32    35    36   ar
    33    36    37   ar
    34    37    38   ar
    35    38    41    1
    36    41    42    1
    37    42    43    1
    38    42    44    1
    39    42    45    1
    40    38    39   ar
    41    39    40   ar
    42    18    13   ar
    43    40    28    1
    44    24    19   ar
    45    33    30    1
    46    40    35   ar
    47     7     8    1
    48     2     3    1
    49    26    27    1
