@<TRIPOS>MOLECULE
*****
 29 32 0 0 0
SMALL
GASTEIGER

@<TRIPOS>ATOM
      1 N          62.0722   86.6000   11.2023 N.pl3   1  UNL1       -0.2872
      2 C          62.8003   82.5411   13.0037 C.ar    1  UNL1        0.0685
      3 C          63.0278   82.7628   11.5378 C.ar    1  UNL1        0.0116
      4 C          62.7851   84.1158   10.9373 C.ar    1  UNL1        0.0155
      5 C          62.3149   85.2471   11.8028 C.ar    1  UNL1        0.0516
      6 C          62.0874   85.0254   13.2687 C.ar    1  UNL1        0.0155
      7 C          62.3301   83.6724   13.8692 C.ar    1  UNL1        0.0116
      8 N          63.2857   79.8352   14.2046 N.1     1  UNL1       -0.1908
      9 C          63.0430   81.1881   13.6042 C.1     1  UNL1        0.1004
     10 C          61.0854   86.7581   10.0837 C.ar    1  UNL1        0.0710
     11 C          61.2443   85.9582    8.8248 C.ar    1  UNL1        0.0180
     12 C          60.2575   86.1163    7.7061 C.ar    1  UNL1        0.0220
     13 C          59.1119   87.0742    7.8465 C.ar    1  UNL1        0.0990
     14 N          58.9529   87.8741    9.1054 N.ar    1  UNL1       -0.2410
     15 C          59.9397   87.7161   10.2240 C.ar    1  UNL1        0.1136
     16 C          62.8162   87.7950   11.7204 C.3     1  UNL1        0.0807
     17 C          62.8226   89.0730   10.9351 C.3     1  UNL1        0.0415
     18 C          63.5667   90.2679   11.4533 C.3     1  UNL1        0.0925
     19 N          64.3043   90.1849   12.7567 N.pl3   1  UNL1       -0.3073
     20 C          64.2980   88.9069   13.5420 C.3     1  UNL1        0.0925
     21 C          63.5539   87.7119   13.0239 C.3     1  UNL1        0.0415
     22 C          65.0484   91.3799   13.2748 C.ar    1  UNL1        0.0502
     23 C          65.4252   92.4916   12.3410 C.ar    1  UNL1        0.0170
     24 C          66.1692   93.6866   12.8591 C.ar    1  UNL1        0.0332
     25 C          66.5365   93.7698   14.3111 C.ar    1  UNL1        0.1675
     26 F          67.2806   94.9648   14.8292 F       1  UNL1       -0.2018
     27 C          66.1597   92.6580   15.2449 C.ar    1  UNL1        0.1686
     28 F          66.5270   92.7412   16.6968 F       1  UNL1       -0.2018
     29 C          65.4157   91.4631   14.7268 C.ar    1  UNL1        0.0465
@<TRIPOS>BOND
     1     8     9    3
     2     9     2    1
     3     2     3   ar
     4     3     4   ar
     5     4     5   ar
     6     5     1    1
     7     1    10    1
     8    10    11   ar
     9    11    12   ar
    10    12    13   ar
    11    13    14   ar
    12    14    15   ar
    13     1    16    1
    14    16    17    1
    15    17    18    1
    16    18    19    1
    17    19    22    1
    18    22    23   ar
    19    23    24   ar
    20    24    25   ar
    21    25    26    1
    22    25    27   ar
    23    27    28    1
    24    27    29   ar
    25    19    20    1
    26    20    21    1
    27     5     6   ar
    28     6     7   ar
    29     7     2   ar
    30    15    10   ar
    31    21    16    1
    32    29    22   ar
@<TRIPOS>MOLECULE
*****
 29 32 0 0 0
SMALL
GASTEIGER

@<TRIPOS>ATOM
      1 N          62.0701   86.6034   11.2144 N.pl3   1  UNL1       -0.2872
      2 C          62.8139   82.5444   13.0091 C.ar    1  UNL1        0.0685
      3 C          62.3625   83.6785   13.8807 C.ar    1  UNL1        0.0116
      4 C          62.1145   85.0315   13.2825 C.ar    1  UNL1        0.0155
      5 C          62.3181   85.2504   11.8126 C.ar    1  UNL1        0.0516
      6 C          62.7695   84.1163   10.9410 C.ar    1  UNL1        0.0155
      7 C          63.0175   82.7632   11.5392 C.ar    1  UNL1        0.0116
      8 N          63.3098   79.8383   14.2055 N.1     1  UNL1       -0.1908
      9 C          63.0618   81.1914   13.6073 C.1     1  UNL1        0.1004
     10 C          61.0787   86.7604   10.0999 C.ar    1  UNL1        0.0710
     11 C          61.2289   85.9551    8.8433 C.ar    1  UNL1        0.0180
     12 C          60.2374   86.1122    7.7288 C.ar    1  UNL1        0.0220
     13 C          59.0956   87.0745    7.8707 C.ar    1  UNL1        0.0990
     14 N          58.9453   87.8798    9.1273 N.ar    1  UNL1       -0.2410
     15 C          59.9368   87.7228   10.2418 C.ar    1  UNL1        0.1136
     16 C          62.8137   87.7994   11.7307 C.3     1  UNL1        0.0807
     17 C          63.5556   87.7171   13.0319 C.3     1  UNL1        0.0415
     18 C          64.2992   88.9131   13.5482 C.3     1  UNL1        0.0925
     19 N          64.3009   90.1915   12.7634 N.pl3   1  UNL1       -0.3073
     20 C          63.5590   90.2738   11.4624 C.3     1  UNL1        0.0925
     21 C          62.8154   89.0778   10.9460 C.3     1  UNL1        0.0415
     22 C          65.0445   91.3875   13.2798 C.ar    1  UNL1        0.0502
     23 C          65.4126   92.5024   12.3462 C.ar    1  UNL1        0.0170
     24 C          66.1561   93.6984   12.8626 C.ar    1  UNL1        0.0332
     25 C          66.5317   93.7795   14.3126 C.ar    1  UNL1        0.1675
     26 F          67.2753   94.9755   14.8290 F       1  UNL1       -0.2018
     27 C          66.1636   92.6646   15.2462 C.ar    1  UNL1        0.1686
     28 F          66.5392   92.7457   16.6961 F       1  UNL1       -0.2018
     29 C          65.4201   91.4686   14.7298 C.ar    1  UNL1        0.0465
@<TRIPOS>BOND
     1     8     9    3
     2     9     2    1
     3     2     3   ar
     4     3     4   ar
     5     4     5   ar
     6     5     1    1
     7     1    10    1
     8    10    11   ar
     9    11    12   ar
    10    12    13   ar
    11    13    14   ar
    12    14    15   ar
    13     1    16    1
    14    16    17    1
    15    17    18    1
    16    18    19    1
    17    19    22    1
    18    22    23   ar
    19    23    24   ar
    20    24    25   ar
    21    25    26    1
    22    25    27   ar
    23    27    28    1
    24    27    29   ar
    25    19    20    1
    26    20    21    1
    27     5     6   ar
    28     6     7   ar
    29     7     2   ar
    30    15    10   ar
    31    21    16    1
    32    29    22   ar
@<TRIPOS>MOLECULE
*****
 29 32 0 0 0
SMALL
GASTEIGER

@<TRIPOS>ATOM
      1 N          60.8297   93.7370    1.4248 N.pl3   1  UNL1       -0.2872
      2 C          60.1177   91.0491    4.9630 C.ar    1  UNL1        0.0685
      3 C          58.9989   91.8891    4.4220 C.ar    1  UNL1        0.0116
      4 C          59.2362   92.7851    3.2427 C.ar    1  UNL1        0.0155
      5 C          60.5924   92.8410    2.6042 C.ar    1  UNL1        0.0516
      6 C          61.7112   92.0010    3.1451 C.ar    1  UNL1        0.0155
      7 C          61.4739   91.1051    4.3245 C.ar    1  UNL1        0.0116
      8 N          59.6430   89.2572    7.3217 N.1     1  UNL1       -0.1908
      9 C          59.8804   90.1532    6.1423 C.1     1  UNL1        0.1004
     10 C          62.2103   94.2480    1.1370 C.ar    1  UNL1        0.0710
     11 C          63.1281   93.4669    0.2440 C.ar    1  UNL1        0.0180
     12 C          64.5087   93.9780   -0.0439 C.ar    1  UNL1        0.0220
     13 C          64.9714   95.2702    0.5613 C.ar    1  UNL1        0.0990
     14 N          64.0536   96.0512    1.4543 N.ar    1  UNL1       -0.2410
     15 C          62.6730   95.5402    1.7421 C.ar    1  UNL1        0.1136
     16 C          59.6865   94.1219    0.5333 C.3     1  UNL1        0.0807
     17 C          59.3815   95.5699    0.2877 C.3     1  UNL1        0.0415
     18 C          58.2383   95.9548   -0.6039 C.3     1  UNL1        0.0925
     19 N          57.4001   94.8917   -1.2499 N.pl3   1  UNL1       -0.3073
     20 C          57.7051   93.4438   -1.0043 C.3     1  UNL1        0.0925
     21 C          58.8483   93.0588   -0.1127 C.3     1  UNL1        0.0415
     22 C          56.2568   95.2767   -2.1415 C.ar    1  UNL1        0.0502
     23 C          56.5194   95.7064   -3.5544 C.ar    1  UNL1        0.0170
     24 C          55.3762   96.0913   -4.4459 C.ar    1  UNL1        0.0332
     25 C          53.9704   96.0466   -3.9245 C.ar    1  UNL1        0.1675
     26 F          52.8272   96.4316   -4.8161 F       1  UNL1       -0.2018
     27 C          53.7079   95.6169   -2.5116 C.ar    1  UNL1        0.1686
     28 F          52.3021   95.5721   -1.9901 F       1  UNL1       -0.2018
     29 C          54.8511   95.2320   -1.6201 C.ar    1  UNL1        0.0465
@<TRIPOS>BOND
     1     8     9    3
     2     9     2    1
     3     2     3   ar
     4     3     4   ar
     5     4     5   ar
     6     5     1    1
     7     1    10    1
     8    10    11   ar
     9    11    12   ar
    10    12    13   ar
    11    13    14   ar
    12    14    15   ar
    13     1    16    1
    14    16    17    1
    15    17    18    1
    16    18    19    1
    17    19    22    1
    18    22    23   ar
    19    23    24   ar
    20    24    25   ar
    21    25    26    1
    22    25    27   ar
    23    27    28    1
    24    27    29   ar
    25    19    20    1
    26    20    21    1
    27     5     6   ar
    28     6     7   ar
    29     7     2   ar
    30    15    10   ar
    31    21    16    1
    32    29    22   ar
@<TRIPOS>MOLECULE
*****
 29 32 0 0 0
SMALL
GASTEIGER

@<TRIPOS>ATOM
      1 N          60.8651   94.5208   -2.4767 N.pl3   1  UNL1       -0.2872
      2 C          62.4184   92.4869    1.2247 C.ar    1  UNL1        0.0685
      3 C          63.2161   93.5811    0.5794 C.ar    1  UNL1        0.0116
      4 C          62.6983   94.2591   -0.6544 C.ar    1  UNL1        0.0155
      5 C          61.3829   93.8429   -1.2429 C.ar    1  UNL1        0.0516
      6 C          60.5852   92.7487   -0.5976 C.ar    1  UNL1        0.0155
      7 C          61.1030   92.0707    0.6362 C.ar    1  UNL1        0.0116
      8 N          63.4540   91.1309    3.6923 N.1     1  UNL1       -0.1908
      9 C          62.9362   91.8089    2.4585 C.1     1  UNL1        0.1004
     10 C          61.8166   94.9379   -3.5586 C.ar    1  UNL1        0.0710
     11 C          62.4990   93.8993   -4.3987 C.ar    1  UNL1        0.0180
     12 C          63.4505   94.3165   -5.4807 C.ar    1  UNL1        0.0220
     13 C          63.7197   95.7722   -5.7225 C.ar    1  UNL1        0.0990
     14 N          63.0373   96.8108   -4.8824 N.ar    1  UNL1       -0.2410
     15 C          62.0858   96.3937   -3.8005 C.ar    1  UNL1        0.1136
     16 C          59.3958   94.7817   -2.6286 C.3     1  UNL1        0.0807
     17 C          58.5845   93.9650   -3.5902 C.3     1  UNL1        0.0415
     18 C          57.1152   94.2259   -3.7421 C.3     1  UNL1        0.0925
     19 N          56.4572   95.3035   -2.9323 N.pl3   1  UNL1       -0.3073
     20 C          57.2684   96.1202   -1.9707 C.3     1  UNL1        0.0925
     21 C          58.7378   95.8593   -1.8188 C.3     1  UNL1        0.0415
     22 C          54.9878   95.5643   -3.0842 C.ar    1  UNL1        0.0502
     23 C          54.0871   95.5010   -1.8865 C.ar    1  UNL1        0.0170
     24 C          52.6178   95.7618   -2.0384 C.ar    1  UNL1        0.0332
     25 C          52.0493   96.0861   -3.3881 C.ar    1  UNL1        0.1675
     26 F          50.5799   96.3469   -3.5400 F       1  UNL1       -0.2018
     27 C          52.9500   96.1494   -4.5859 C.ar    1  UNL1        0.1686
     28 F          52.3815   96.4736   -5.9355 F       1  UNL1       -0.2018
     29 C          54.4193   95.8886   -4.4339 C.ar    1  UNL1        0.0465
@<TRIPOS>BOND
     1     8     9    3
     2     9     2    1
     3     2     3   ar
     4     3     4   ar
     5     4     5   ar
     6     5     1    1
     7     1    10    1
     8    10    11   ar
     9    11    12   ar
    10    12    13   ar
    11    13    14   ar
    12    14    15   ar
    13     1    16    1
    14    16    17    1
    15    17    18    1
    16    18    19    1
    17    19    22    1
    18    22    23   ar
    19    23    24   ar
    20    24    25   ar
    21    25    26    1
    22    25    27   ar
    23    27    28    1
    24    27    29   ar
    25    19    20    1
    26    20    21    1
    27     5     6   ar
    28     6     7   ar
    29     7     2   ar
    30    15    10   ar
    31    21    16    1
    32    29    22   ar
@<TRIPOS>MOLECULE
*****
 29 32 0 0 0
SMALL
GASTEIGER

@<TRIPOS>ATOM
      1 N          61.2519   93.8327    1.2998 N.pl3   1  UNL1       -0.2872
      2 C          60.1908   91.1497    4.7532 C.ar    1  UNL1        0.0685
      3 C          61.5910   91.1614    4.2152 C.ar    1  UNL1        0.0116
      4 C          61.9446   92.0557    3.0641 C.ar    1  UNL1        0.0155
      5 C          60.8982   92.9383    2.4509 C.ar    1  UNL1        0.0516
      6 C          59.4981   92.9266    2.9889 C.ar    1  UNL1        0.0155
      7 C          59.1444   92.0322    4.1400 C.ar    1  UNL1        0.0116
      8 N          59.4835   89.3610    7.0554 N.1     1  UNL1       -0.1908
      9 C          59.8371   90.2553    5.9043 C.1     1  UNL1        0.1004
     10 C          62.5203   94.6326    1.3337 C.ar    1  UNL1        0.0710
     11 C          62.4970   96.0560    1.8063 C.ar    1  UNL1        0.0180
     12 C          63.7655   96.8559    1.8402 C.ar    1  UNL1        0.0220
     13 C          65.0573   96.2324    1.4015 C.ar    1  UNL1        0.0990
     14 N          65.0806   94.8090    0.9289 N.ar    1  UNL1       -0.2410
     15 C          63.8122   94.0091    0.8950 C.ar    1  UNL1        0.1136
     16 C          60.3372   93.9271    0.1148 C.3     1  UNL1        0.0807
     17 C          59.1448   94.8362    0.1583 C.3     1  UNL1        0.0415
     18 C          58.2301   94.9306   -1.0267 C.3     1  UNL1        0.0925
     19 N          58.5076   94.1160   -2.2553 N.pl3   1  UNL1       -0.3073
     20 C          59.6999   93.2069   -2.2988 C.3     1  UNL1        0.0925
     21 C          60.6147   93.1124   -1.1137 C.3     1  UNL1        0.0415
     22 C          57.5928   94.2104   -3.4403 C.ar    1  UNL1        0.0502
     23 C          57.3361   95.5400   -4.0855 C.ar    1  UNL1        0.0170
     24 C          56.4213   95.6344   -5.2705 C.ar    1  UNL1        0.0332
     25 C          55.7633   94.3992   -5.8103 C.ar    1  UNL1        0.1675
     26 F          54.8484   94.4937   -6.9953 F       1  UNL1       -0.2018
     27 C          56.0200   93.0697   -5.1651 C.ar    1  UNL1        0.1686
     28 F          55.3620   91.8345   -5.7049 F       1  UNL1       -0.2018
     29 C          56.9348   92.9753   -3.9801 C.ar    1  UNL1        0.0465
@<TRIPOS>BOND
     1     8     9    3
     2     9     2    1
     3     2     3   ar
     4     3     4   ar
     5     4     5   ar
     6     5     1    1
     7     1    10    1
     8    10    11   ar
     9    11    12   ar
    10    12    13   ar
    11    13    14   ar
    12    14    15   ar
    13     1    16    1
    14    16    17    1
    15    17    18    1
    16    18    19    1
    17    19    22    1
    18    22    23   ar
    19    23    24   ar
    20    24    25   ar
    21    25    26    1
    22    25    27   ar
    23    27    28    1
    24    27    29   ar
    25    19    20    1
    26    20    21    1
    27     5     6   ar
    28     6     7   ar
    29     7     2   ar
    30    15    10   ar
    31    21    16    1
    32    29    22   ar
@<TRIPOS>MOLECULE
*****
 29 32 0 0 0
SMALL
GASTEIGER

@<TRIPOS>ATOM
      1 N          62.6356   88.6179   12.0762 N.pl3   1  UNL1       -0.2872
      2 C          65.5472   91.2347   14.2954 C.ar    1  UNL1        0.0685
      3 C          64.9966   91.6792   12.9728 C.ar    1  UNL1        0.0116
      4 C          64.0261   90.8069   12.2331 C.ar    1  UNL1        0.0155
      5 C          63.6062   89.4901   12.8160 C.ar    1  UNL1        0.0516
      6 C          64.1567   89.0457   14.1386 C.ar    1  UNL1        0.0155
      7 C          65.1272   89.9180   14.8783 C.ar    1  UNL1        0.0116
      8 N          67.4882   92.9793   15.7749 N.1     1  UNL1       -0.1908
      9 C          66.5177   92.1070   15.0352 C.1     1  UNL1        0.1004
     10 C          61.6326   89.2330   11.1460 C.ar    1  UNL1        0.0710
     11 C          61.7173   88.9704    9.6716 C.ar    1  UNL1        0.0180
     12 C          60.7142   89.5856    8.7413 C.ar    1  UNL1        0.0220
     13 C          59.6264   90.4634    9.2855 C.ar    1  UNL1        0.0990
     14 N          59.5417   90.7261   10.7599 N.ar    1  UNL1       -0.2410
     15 C          60.5447   90.1109   11.6901 C.ar    1  UNL1        0.1136
     16 C          62.6682   87.1304   12.2667 C.3     1  UNL1        0.0807
     17 C          61.9373   86.2355   11.3101 C.3     1  UNL1        0.0415
     18 C          61.9698   84.7481   11.5006 C.3     1  UNL1        0.0925
     19 N          62.7332   84.1554   12.6477 N.pl3   1  UNL1       -0.3073
     20 C          63.4641   85.0501   13.6043 C.3     1  UNL1        0.0925
     21 C          63.4316   86.5377   13.4139 C.3     1  UNL1        0.0415
     22 C          62.7657   82.6678   12.8382 C.ar    1  UNL1        0.0502
     23 C          62.7987   82.0894   14.2217 C.ar    1  UNL1        0.0170
     24 C          62.8312   80.6019   14.4122 C.ar    1  UNL1        0.0332
     25 C          62.8307   79.6929   13.2190 C.ar    1  UNL1        0.1675
     26 F          62.8632   78.2053   13.4095 F       1  UNL1       -0.2018
     27 C          62.7977   80.2713   11.8354 C.ar    1  UNL1        0.1686
     28 F          62.7973   79.3622   10.6423 F       1  UNL1       -0.2018
     29 C          62.7652   81.7588   11.6450 C.ar    1  UNL1        0.0465
@<TRIPOS>BOND
     1     8     9    3
     2     9     2    1
     3     2     3   ar
     4     3     4   ar
     5     4     5   ar
     6     5     1    1
     7     1    10    1
     8    10    11   ar
     9    11    12   ar
    10    12    13   ar
    11    13    14   ar
    12    14    15   ar
    13     1    16    1
    14    16    17    1
    15    17    18    1
    16    18    19    1
    17    19    22    1
    18    22    23   ar
    19    23    24   ar
    20    24    25   ar
    21    25    26    1
    22    25    27   ar
    23    27    28    1
    24    27    29   ar
    25    19    20    1
    26    20    21    1
    27     5     6   ar
    28     6     7   ar
    29     7     2   ar
    30    15    10   ar
    31    21    16    1
    32    29    22   ar
@<TRIPOS>MOLECULE
*****
 29 32 0 0 0
SMALL
GASTEIGER

@<TRIPOS>ATOM
      1 N          62.7451   86.2982   12.4117 N.pl3   1  UNL1       -0.2872
      2 C          60.0467   86.9911    8.8778 C.ar    1  UNL1        0.0685
      3 C          59.7896   87.7084   10.1698 C.ar    1  UNL1        0.0116
      4 C          60.6891   87.4774   11.3478 C.ar    1  UNL1        0.0155
      5 C          61.8457   86.5291   11.2338 C.ar    1  UNL1        0.0516
      6 C          62.1027   85.8118    9.9418 C.ar    1  UNL1        0.0155
      7 C          61.2033   86.0428    8.7638 C.ar    1  UNL1        0.0116
      8 N          58.2478   87.4530    6.5219 N.1     1  UNL1       -0.1908
      9 C          59.1472   87.2220    7.6999 C.1     1  UNL1        0.1004
     10 C          62.8839   84.9215   12.9908 C.ar    1  UNL1        0.0710
     11 C          63.7745   83.9143   12.3256 C.ar    1  UNL1        0.0180
     12 C          63.9132   82.5375   12.9048 C.ar    1  UNL1        0.0220
     13 C          63.1615   82.1680   14.1491 C.ar    1  UNL1        0.0990
     14 N          62.2710   83.1752   14.8143 N.ar    1  UNL1       -0.2410
     15 C          62.1322   84.5519   14.2352 C.ar    1  UNL1        0.1136
     16 C          63.5058   87.4439   13.0106 C.3     1  UNL1        0.0807
     17 C          64.3303   87.2328   14.2458 C.3     1  UNL1        0.0415
     18 C          65.0909   88.3785   14.8447 C.3     1  UNL1        0.0925
     19 N          65.0272   89.7353   14.2084 N.pl3   1  UNL1       -0.3073
     20 C          64.2027   89.9465   12.9732 C.3     1  UNL1        0.0925
     21 C          63.4420   88.8007   12.3743 C.3     1  UNL1        0.0415
     22 C          65.7879   90.8811   14.8073 C.ar    1  UNL1        0.0502
     23 C          65.1276   91.7747   15.8150 C.ar    1  UNL1        0.0170
     24 C          65.8883   92.9203   16.4139 C.ar    1  UNL1        0.0332
     25 C          67.3093   93.1725   16.0050 C.ar    1  UNL1        0.1675
     26 F          68.0700   94.3182   16.6039 F       1  UNL1       -0.2018
     27 C          67.9696   92.2789   14.9973 C.ar    1  UNL1        0.1686
     28 F          69.3906   92.5310   14.5885 F       1  UNL1       -0.2018
     29 C          67.2089   91.1332   14.3984 C.ar    1  UNL1        0.0465
@<TRIPOS>BOND
     1     8     9    3
     2     9     2    1
     3     2     3   ar
     4     3     4   ar
     5     4     5   ar
     6     5     1    1
     7     1    10    1
     8    10    11   ar
     9    11    12   ar
    10    12    13   ar
    11    13    14   ar
    12    14    15   ar
    13     1    16    1
    14    16    17    1
    15    17    18    1
    16    18    19    1
    17    19    22    1
    18    22    23   ar
    19    23    24   ar
    20    24    25   ar
    21    25    26    1
    22    25    27   ar
    23    27    28    1
    24    27    29   ar
    25    19    20    1
    26    20    21    1
    27     5     6   ar
    28     6     7   ar
    29     7     2   ar
    30    15    10   ar
    31    21    16    1
    32    29    22   ar
@<TRIPOS>MOLECULE
*****
 29 32 0 0 0
SMALL
GASTEIGER

@<TRIPOS>ATOM
      1 N          62.8222   84.8260   11.9633 N.pl3   1  UNL1       -0.2872
      2 C          62.1625   84.7922    7.5120 C.ar    1  UNL1        0.0685
      3 C          63.3450   84.0814    8.1004 C.ar    1  UNL1        0.0116
      4 C          63.5649   84.0926    9.5841 C.ar    1  UNL1        0.0155
      5 C          62.6023   84.8147   10.4795 C.ar    1  UNL1        0.0516
      6 C          61.4197   85.5256    9.8912 C.ar    1  UNL1        0.0155
      7 C          61.1998   85.5144    8.4074 C.ar    1  UNL1        0.0116
      8 N          61.7226   84.7697    4.5445 N.1     1  UNL1       -0.1908
      9 C          61.9425   84.7810    6.0283 C.1     1  UNL1        0.1004
     10 C          62.5939   83.5788   12.7648 C.ar    1  UNL1        0.0710
     11 C          62.5853   82.2416   12.0852 C.ar    1  UNL1        0.0180
     12 C          62.3570   80.9944   12.8868 C.ar    1  UNL1        0.0220
     13 C          62.1373   81.0845   14.3679 C.ar    1  UNL1        0.0990
     14 N          62.1459   82.4217   15.0474 N.ar    1  UNL1       -0.2410
     15 C          62.3742   83.6689   14.2459 C.ar    1  UNL1        0.1136
     16 C          63.2704   86.0844   12.6455 C.3     1  UNL1        0.0807
     17 C          64.0305   86.0078   13.9364 C.3     1  UNL1        0.0415
     18 C          64.4787   87.2662   14.6187 C.3     1  UNL1        0.0925
     19 N          64.1668   88.6012   14.0101 N.pl3   1  UNL1       -0.3073
     20 C          63.4067   88.6779   12.7192 C.3     1  UNL1        0.0925
     21 C          62.9585   87.4194   12.0369 C.3     1  UNL1        0.0415
     22 C          64.6150   89.8597   14.6924 C.ar    1  UNL1        0.0502
     23 C          63.8137   90.4232   15.8283 C.ar    1  UNL1        0.0170
     24 C          64.2620   91.6816   16.5105 C.ar    1  UNL1        0.0332
     25 C          65.5116   92.3764   16.0569 C.ar    1  UNL1        0.1675
     26 F          65.9598   93.6348   16.7392 F       1  UNL1       -0.2018
     27 C          66.3129   91.8129   14.9210 C.ar    1  UNL1        0.1686
     28 F          67.5625   92.5077   14.4674 F       1  UNL1       -0.2018
     29 C          65.8646   90.5545   14.2388 C.ar    1  UNL1        0.0465
@<TRIPOS>BOND
     1     8     9    3
     2     9     2    1
     3     2     3   ar
     4     3     4   ar
     5     4     5   ar
     6     5     1    1
     7     1    10    1
     8    10    11   ar
     9    11    12   ar
    10    12    13   ar
    11    13    14   ar
    12    14    15   ar
    13     1    16    1
    14    16    17    1
    15    17    18    1
    16    18    19    1
    17    19    22    1
    18    22    23   ar
    19    23    24   ar
    20    24    25   ar
    21    25    26    1
    22    25    27   ar
    23    27    28    1
    24    27    29   ar
    25    19    20    1
    26    20    21    1
    27     5     6   ar
    28     6     7   ar
    29     7     2   ar
    30    15    10   ar
    31    21    16    1
    32    29    22   ar
@<TRIPOS>MOLECULE
*****
 29 32 0 0 0
SMALL
GASTEIGER

@<TRIPOS>ATOM
      1 N          62.5096   88.7253   12.2920 N.pl3   1  UNL1       -0.2872
      2 C          65.8342   90.9461   14.3572 C.ar    1  UNL1        0.0685
      3 C          65.2421   91.4902   13.0910 C.ar    1  UNL1        0.0116
      4 C          64.1339   90.7499   12.4026 C.ar    1  UNL1        0.0155
      5 C          63.6178   89.4656   12.9804 C.ar    1  UNL1        0.0516
      6 C          64.2098   88.9215   14.2466 C.ar    1  UNL1        0.0155
      7 C          65.3180   89.6617   14.9350 C.ar    1  UNL1        0.0116
      8 N          68.0506   92.4266   15.7340 N.1     1  UNL1       -0.1908
      9 C          66.9424   91.6863   15.0456 C.1     1  UNL1        0.1004
     10 C          61.3252   89.4751   11.7582 C.ar    1  UNL1        0.0710
     11 C          60.1141   89.6762   12.6201 C.ar    1  UNL1        0.0180
     12 C          58.9297   90.4260   12.0863 C.ar    1  UNL1        0.0220
     13 C          58.9563   90.9747   10.6905 C.ar    1  UNL1        0.0990
     14 N          60.1674   90.7736    9.8286 N.ar    1  UNL1       -0.2410
     15 C          61.3518   90.0238   10.3624 C.ar    1  UNL1        0.1136
     16 C          62.5857   87.2353   12.1374 C.3     1  UNL1        0.0807
     17 C          63.3756   86.4190   13.1172 C.3     1  UNL1        0.0415
     18 C          63.4518   84.9289   12.9626 C.3     1  UNL1        0.0925
     19 N          62.7381   84.2551   11.8283 N.pl3   1  UNL1       -0.3073
     20 C          61.9483   85.0713   10.8486 C.3     1  UNL1        0.0925
     21 C          61.8721   86.5614   11.0031 C.3     1  UNL1        0.0415
     22 C          62.8144   82.7650   11.6738 C.ar    1  UNL1        0.0502
     23 C          63.2792   82.1681   10.3785 C.ar    1  UNL1        0.0170
     24 C          63.3554   80.6781   10.2241 C.ar    1  UNL1        0.0332
     25 C          62.9667   79.7849   11.3648 C.ar    1  UNL1        0.1675
     26 F          63.0430   78.2948   11.2102 F       1  UNL1       -0.2018
     27 C          62.5019   80.3818   12.6600 C.ar    1  UNL1        0.1686
     28 F          62.1133   79.4886   13.8007 F       1  UNL1       -0.2018
     29 C          62.4257   81.8718   12.8145 C.ar    1  UNL1        0.0465
@<TRIPOS>BOND
     1     8     9    3
     2     9     2    1
     3     2     3   ar
     4     3     4   ar
     5     4     5   ar
     6     5     1    1
     7     1    10    1
     8    10    11   ar
     9    11    12   ar
    10    12    13   ar
    11    13    14   ar
    12    14    15   ar
    13     1    16    1
    14    16    17    1
    15    17    18    1
    16    18    19    1
    17    19    22    1
    18    22    23   ar
    19    23    24   ar
    20    24    25   ar
    21    25    26    1
    22    25    27   ar
    23    27    28    1
    24    27    29   ar
    25    19    20    1
    26    20    21    1
    27     5     6   ar
    28     6     7   ar
    29     7     2   ar
    30    15    10   ar
    31    21    16    1
    32    29    22   ar
