@<TRIPOS>MOLECULE
*****
 35 39 0 0 0
SMALL
GASTEIGER

@<TRIPOS>ATOM
      1 C          58.7493   94.7341   -4.3330 C.ar    1  UNL1        0.0113
      2 C          59.1618   94.8986   -5.7658 C.ar    1  UNL1        0.0001
      3 C          60.5684   94.5852   -6.1819 C.ar    1  UNL1        0.0170
      4 C          61.5625   94.1073   -5.1653 C.ar    1  UNL1        0.0625
      5 C          61.1500   93.9428   -3.7326 C.ar    1  UNL1        0.0158
      6 C          59.7434   94.2562   -3.3164 C.ar    1  UNL1        0.0001
      7 C          62.1440   93.4650   -2.7160 C.ar    1  UNL1        0.0061
      8 C          63.5506   93.1516   -3.1321 C.ar    1  UNL1        0.0608
      9 C          63.9632   93.3160   -4.5649 C.ar    1  UNL1        0.2610
     10 O          65.3698   93.0026   -4.9810 O.2     1  UNL1       -0.2670
     11 N          62.9692   93.7939   -5.5815 N.ar    1  UNL1       -0.2935
     12 C          63.3817   93.9583   -7.0142 C.3     1  UNL1        0.1335
     13 C          61.7315   93.3005   -1.2833 C.ar    1  UNL1        0.0003
     14 C          62.5630   93.9024   -0.1895 C.ar    1  UNL1        0.0009
     15 C          62.1505   93.7379    1.2433 C.ar    1  UNL1        0.0114
     16 C          60.9064   92.9716    1.5822 C.ar    1  UNL1        0.0577
     17 CL         60.4938   92.8071    3.0150 Cl      1  UNL1       -0.0822
     18 C          60.0748   92.3697    0.4885 C.ar    1  UNL1        0.0114
     19 C          60.4874   92.5341   -0.9442 C.ar    1  UNL1        0.0009
     20 C          57.3426   95.0475   -3.9169 C.3     1  UNL1        0.1647
     21 C          55.9360   95.3609   -3.5007 C.ar    1  UNL1        0.0112
     22 C          55.3467   94.6986   -2.2906 C.ar    1  UNL1       -0.0005
     23 C          53.9401   95.0120   -1.8745 C.ar    1  UNL1        0.0112
     24 C          53.1227   95.9876   -2.6683 C.ar    1  UNL1        0.0577
     25 CL         51.7161   96.3009   -2.2522 Cl      1  UNL1       -0.0822
     26 C          53.7120   96.6498   -3.8783 C.ar    1  UNL1        0.0112
     27 C          55.1187   96.3365   -4.2945 C.ar    1  UNL1       -0.0005
     28 C          56.9349   93.6394   -4.2345 C.ar    1  UNL1        0.0901
     29 C          57.1553   92.4395   -3.3617 C.ar    1  UNL1        0.1163
     30 N          56.5918   91.2424   -4.0686 N.ar    1  UNL1       -0.2226
     31 C          56.0233   91.7025   -5.3783 C.ar    1  UNL1        0.1784
     32 N          56.2353   93.1839   -5.4808 N.ar    1  UNL1       -0.3080
     33 C          55.8206   94.0566   -6.6281 C.3     1  UNL1        0.1318
     34 C          58.0244   96.8550   -2.1795 C.3     1  UNL1        0.1753
     35 O          57.7503   96.4556   -3.5992 O.3     1  UNL1       -0.3422
@<TRIPOS>BOND
     1    34    35    1
     2    35    20    1
     3    20    21    1
     4    21    22   ar
     5    22    23   ar
     6    23    24   ar
     7    24    25    1
     8    24    26   ar
     9    26    27   ar
    10    20     1    1
    11     1     2   ar
    12     2     3   ar
    13     3     4   ar
    14     4     5   ar
    15     5     6   ar
    16     5     7   ar
    17     7    13    1
    18    13    14   ar
    19    14    15   ar
    20    15    16   ar
    21    16    17    1
    22    16    18   ar
    23    18    19   ar
    24     7     8   ar
    25     8     9   ar
    26     9    10    2
    27     9    11   ar
    28    11    12    1
    29    20    28    1
    30    28    29   ar
    31    29    30   ar
    32    30    31   ar
    33    31    32   ar
    34    32    33    1
    35    27    21   ar
    36     6     1   ar
    37    19    13   ar
    38    32    28   ar
    39    11     4   ar
@<TRIPOS>MOLECULE
*****
 35 39 0 0 0
SMALL
GASTEIGER

@<TRIPOS>ATOM
      1 C          58.9095   94.2143   -1.6794 C.ar    1  UNL1        0.0113
      2 C          58.2154   93.8392   -0.4038 C.ar    1  UNL1        0.0001
      3 C          59.0143   93.3611    0.7722 C.ar    1  UNL1        0.0170
      4 C          60.5075   93.2581    0.6725 C.ar    1  UNL1        0.0625
      5 C          61.2016   93.6331   -0.6032 C.ar    1  UNL1        0.0158
      6 C          60.4026   94.1112   -1.7792 C.ar    1  UNL1        0.0001
      7 C          62.6948   93.5301   -0.7029 C.ar    1  UNL1        0.0061
      8 C          63.4937   93.0520    0.4731 C.ar    1  UNL1        0.0608
      9 C          62.7996   92.6769    1.7489 C.ar    1  UNL1        0.2610
     10 O          63.5986   92.1989    2.9249 O.2     1  UNL1       -0.2670
     11 N          61.3065   92.7800    1.8486 N.ar    1  UNL1       -0.2935
     12 C          60.6123   92.4049    3.1243 C.3     1  UNL1        0.1335
     13 C          63.3889   93.9052   -1.9786 C.ar    1  UNL1        0.0003
     14 C          64.0227   95.2575   -2.1180 C.ar    1  UNL1        0.0009
     15 C          64.7168   95.6326   -3.3938 C.ar    1  UNL1        0.0114
     16 C          64.7772   94.6553   -4.5300 C.ar    1  UNL1        0.0577
     17 CL         65.4714   95.0303   -5.8058 Cl      1  UNL1       -0.0822
     18 C          64.1434   93.3029   -4.3906 C.ar    1  UNL1        0.0114
     19 C          63.4493   92.9278   -3.1149 C.ar    1  UNL1        0.0009
     20 C          58.1105   94.6924   -2.8555 C.3     1  UNL1        0.1647
     21 C          57.3115   95.1704   -4.0316 C.ar    1  UNL1        0.0112
     22 C          57.6611   94.7061   -5.4144 C.ar    1  UNL1       -0.0005
     23 C          56.8622   95.1841   -6.5905 C.ar    1  UNL1        0.0112
     24 C          55.7136   96.1265   -6.3837 C.ar    1  UNL1        0.0577
     25 CL         54.9146   96.6045   -7.5597 Cl      1  UNL1       -0.0822
     26 C          55.3640   96.5908   -5.0009 C.ar    1  UNL1        0.0112
     27 C          56.1630   96.1128   -3.8248 C.ar    1  UNL1       -0.0005
     28 C          57.5088   93.3262   -3.0021 C.ar    1  UNL1        0.0901
     29 C          58.1471   92.1497   -3.6791 C.ar    1  UNL1        0.1163
     30 N          57.1960   90.9929   -3.5928 N.ar    1  UNL1       -0.2226
     31 C          55.9698   91.4546   -2.8624 C.ar    1  UNL1        0.1784
     32 N          56.1631   92.8966   -2.4974 N.ar    1  UNL1       -0.3080
     33 C          55.1830   93.7579   -1.7575 C.3     1  UNL1        0.1318
     34 C          58.4679   96.8558   -1.4621 C.3     1  UNL1        0.1753
     35 O          58.7122   96.0585   -2.7090 O.3     1  UNL1       -0.3422
@<TRIPOS>BOND
     1    34    35    1
     2    35    20    1
     3    20    21    1
     4    21    22   ar
     5    22    23   ar
     6    23    24   ar
     7    24    25    1
     8    24    26   ar
     9    26    27   ar
    10    20     1    1
    11     1     2   ar
    12     2     3   ar
    13     3     4   ar
    14     4     5   ar
    15     5     6   ar
    16     5     7   ar
    17     7    13    1
    18    13    14   ar
    19    14    15   ar
    20    15    16   ar
    21    16    17    1
    22    16    18   ar
    23    18    19   ar
    24     7     8   ar
    25     8     9   ar
    26     9    10    2
    27     9    11   ar
    28    11    12    1
    29    20    28    1
    30    28    29   ar
    31    29    30   ar
    32    30    31   ar
    33    31    32   ar
    34    32    33    1
    35    27    21   ar
    36     6     1   ar
    37    19    13   ar
    38    32    28   ar
    39    11     4   ar
@<TRIPOS>MOLECULE
*****
 35 39 0 0 0
SMALL
GASTEIGER

@<TRIPOS>ATOM
      1 C          64.0721   90.7679   11.9875 C.ar    1  UNL1        0.0113
      2 C          63.3905   91.5913   10.9352 C.ar    1  UNL1        0.0001
      3 C          62.3499   90.9683   10.0527 C.ar    1  UNL1        0.0170
      4 C          61.9908   89.5219   10.2225 C.ar    1  UNL1        0.0625
      5 C          62.6724   88.6984   11.2748 C.ar    1  UNL1        0.0158
      6 C          63.7130   89.3215   12.1573 C.ar    1  UNL1        0.0001
      7 C          62.3133   87.2520   11.4446 C.ar    1  UNL1        0.0061
      8 C          61.2727   86.6289   10.5621 C.ar    1  UNL1        0.0608
      9 C          60.5910   87.4524    9.5097 C.ar    1  UNL1        0.2610
     10 O          59.5504   86.8294    8.6272 O.2     1  UNL1       -0.2670
     11 N          60.9501   88.8988    9.3399 N.ar    1  UNL1       -0.2935
     12 C          60.2686   89.7223    8.2876 C.3     1  UNL1        0.1335
     13 C          62.9949   86.4285   12.4969 C.ar    1  UNL1        0.0003
     14 C          63.7370   87.1025   13.6127 C.ar    1  UNL1        0.0009
     15 C          64.4186   86.2790   14.6650 C.ar    1  UNL1        0.0114
     16 C          64.3580   84.7816   14.6015 C.ar    1  UNL1        0.0577
     17 CL         65.0396   83.9581   15.6538 Cl      1  UNL1       -0.0822
     18 C          63.6159   84.1076   13.4857 C.ar    1  UNL1        0.0114
     19 C          62.9344   84.9311   12.4334 C.ar    1  UNL1        0.0009
     20 C          65.1128   91.3909   12.8700 C.3     1  UNL1        0.1647
     21 C          66.1535   92.0139   13.7525 C.ar    1  UNL1        0.0112
     22 C          66.2749   93.5071   13.8301 C.ar    1  UNL1       -0.0005
     23 C          67.3155   94.1301   14.7126 C.ar    1  UNL1        0.0112
     24 C          68.2349   93.2601   15.5175 C.ar    1  UNL1        0.0577
     25 CL         69.2755   93.8831   16.4000 Cl      1  UNL1       -0.0822
     26 C          68.1135   91.7670   15.4400 C.ar    1  UNL1        0.0112
     27 C          67.0728   91.1439   14.5575 C.ar    1  UNL1       -0.0005
     28 C          65.5321   92.2873   11.7428 C.ar    1  UNL1        0.0901
     29 C          64.6872   93.3447   11.0961 C.ar    1  UNL1        0.1163
     30 N          65.5029   93.9946   10.0179 N.ar    1  UNL1       -0.2226
     31 C          66.8519   93.3388    9.9982 C.ar    1  UNL1        0.1784
     32 N          66.8699   92.2837   11.0643 N.ar    1  UNL1       -0.3080
     33 C          68.0232   91.3831   11.3939 C.3     1  UNL1        0.1318
     34 C          63.8606   91.0400   15.1192 C.3     1  UNL1        0.1753
     35 O          64.6936   90.4946   13.9973 O.3     1  UNL1       -0.3422
@<TRIPOS>BOND
     1    34    35    1
     2    35    20    1
     3    20    21    1
     4    21    22   ar
     5    22    23   ar
     6    23    24   ar
     7    24    25    1
     8    24    26   ar
     9    26    27   ar
    10    20     1    1
    11     1     2   ar
    12     2     3   ar
    13     3     4   ar
    14     4     5   ar
    15     5     6   ar
    16     5     7   ar
    17     7    13    1
    18    13    14   ar
    19    14    15   ar
    20    15    16   ar
    21    16    17    1
    22    16    18   ar
    23    18    19   ar
    24     7     8   ar
    25     8     9   ar
    26     9    10    2
    27     9    11   ar
    28    11    12    1
    29    20    28    1
    30    28    29   ar
    31    29    30   ar
    32    30    31   ar
    33    31    32   ar
    34    32    33    1
    35    27    21   ar
    36     6     1   ar
    37    19    13   ar
    38    32    28   ar
    39    11     4   ar
@<TRIPOS>MOLECULE
*****
 35 39 0 0 0
SMALL
GASTEIGER

@<TRIPOS>ATOM
      1 C          58.4381   94.4295   -1.6665 C.ar    1  UNL1        0.0113
      2 C          58.2186   93.8923   -0.2833 C.ar    1  UNL1        0.0001
      3 C          59.3904   93.4659    0.5503 C.ar    1  UNL1        0.0170
      4 C          60.7817   93.5766    0.0007 C.ar    1  UNL1        0.0625
      5 C          61.0012   94.1138   -1.3825 C.ar    1  UNL1        0.0158
      6 C          59.8294   94.5402   -2.2161 C.ar    1  UNL1        0.0001
      7 C          62.3925   94.2245   -1.9320 C.ar    1  UNL1        0.0061
      8 C          63.5643   93.7980   -1.0984 C.ar    1  UNL1        0.0608
      9 C          63.3448   93.2608    0.2848 C.ar    1  UNL1        0.2610
     10 O          64.5166   92.8343    1.1184 O.2     1  UNL1       -0.2670
     11 N          61.9535   93.1501    0.8344 N.ar    1  UNL1       -0.2935
     12 C          61.7340   92.6129    2.2175 C.3     1  UNL1        0.1335
     13 C          62.6120   94.7617   -3.3152 C.ar    1  UNL1        0.0003
     14 C          62.7204   96.2413   -3.5367 C.ar    1  UNL1        0.0009
     15 C          62.9399   96.7784   -4.9200 C.ar    1  UNL1        0.0114
     16 C          63.0510   95.8360   -6.0816 C.ar    1  UNL1        0.0577
     17 CL         63.2705   96.3732   -7.4649 Cl      1  UNL1       -0.0822
     18 C          62.9426   94.3565   -5.8601 C.ar    1  UNL1        0.0114
     19 C          62.7231   93.8193   -4.4770 C.ar    1  UNL1        0.0009
     20 C          57.2662   94.8560   -2.5002 C.3     1  UNL1        0.1647
     21 C          56.0944   95.2825   -3.3338 C.ar    1  UNL1        0.0112
     22 C          56.2923   95.6457   -4.7757 C.ar    1  UNL1       -0.0005
     23 C          55.1205   96.0721   -5.6094 C.ar    1  UNL1        0.0112
     24 C          53.7508   96.1354   -5.0012 C.ar    1  UNL1        0.0577
     25 CL         52.5790   96.5618   -5.8349 Cl      1  UNL1       -0.0822
     26 C          53.5529   95.7722   -3.5594 C.ar    1  UNL1        0.0112
     27 C          54.7247   95.3457   -2.7257 C.ar    1  UNL1       -0.0005
     28 C          56.9362   93.4182   -2.7718 C.ar    1  UNL1        0.0901
     29 C          56.0629   92.5391   -1.9265 C.ar    1  UNL1        0.1163
     30 N          56.0086   91.1846   -2.5687 N.ar    1  UNL1       -0.2226
     31 C          56.8483   91.2266   -3.8110 C.ar    1  UNL1        0.1784
     32 N          57.4216   92.6070   -3.9365 N.ar    1  UNL1       -0.3080
     33 C          58.3221   93.0913   -5.0340 C.3     1  UNL1        0.1318
     34 C          57.4207   96.8559   -0.8490 C.3     1  UNL1        0.1753
     35 O          57.5962   96.2938   -2.2286 O.3     1  UNL1       -0.3422
@<TRIPOS>BOND
     1    34    35    1
     2    35    20    1
     3    20    21    1
     4    21    22   ar
     5    22    23   ar
     6    23    24   ar
     7    24    25    1
     8    24    26   ar
     9    26    27   ar
    10    20     1    1
    11     1     2   ar
    12     2     3   ar
    13     3     4   ar
    14     4     5   ar
    15     5     6   ar
    16     5     7   ar
    17     7    13    1
    18    13    14   ar
    19    14    15   ar
    20    15    16   ar
    21    16    17    1
    22    16    18   ar
    23    18    19   ar
    24     7     8   ar
    25     8     9   ar
    26     9    10    2
    27     9    11   ar
    28    11    12    1
    29    20    28    1
    30    28    29   ar
    31    29    30   ar
    32    30    31   ar
    33    31    32   ar
    34    32    33    1
    35    27    21   ar
    36     6     1   ar
    37    19    13   ar
    38    32    28   ar
    39    11     4   ar
@<TRIPOS>MOLECULE
*****
 35 39 0 0 0
SMALL
GASTEIGER

@<TRIPOS>ATOM
      1 C          63.4975   90.1232   12.0486 C.ar    1  UNL1        0.0113
      2 C          62.7399   91.0283   11.1231 C.ar    1  UNL1        0.0001
      3 C          61.7345   90.4544   10.1694 C.ar    1  UNL1        0.0170
      4 C          61.4866   88.9753   10.1412 C.ar    1  UNL1        0.0625
      5 C          62.2442   88.0701   11.0667 C.ar    1  UNL1        0.0158
      6 C          63.2497   88.6441   12.0204 C.ar    1  UNL1        0.0001
      7 C          61.9964   86.5910   11.0385 C.ar    1  UNL1        0.0061
      8 C          60.9909   86.0171   10.0848 C.ar    1  UNL1        0.0608
      9 C          60.2332   86.9223    9.1592 C.ar    1  UNL1        0.2610
     10 O          59.2278   86.3483    8.2055 O.2     1  UNL1       -0.2670
     11 N          60.4811   88.4014    9.1874 N.ar    1  UNL1       -0.2935
     12 C          59.7235   89.3066    8.2619 C.3     1  UNL1        0.1335
     13 C          62.7540   85.6858   11.9640 C.ar    1  UNL1        0.0003
     14 C          62.7905   85.9775   13.4349 C.ar    1  UNL1        0.0009
     15 C          63.5482   85.0722   14.3604 C.ar    1  UNL1        0.0114
     16 C          64.2693   83.8754   13.8150 C.ar    1  UNL1        0.0577
     17 CL         65.0270   82.9701   14.7406 Cl      1  UNL1       -0.0822
     18 C          64.2327   83.5837   12.3441 C.ar    1  UNL1        0.0114
     19 C          63.4751   84.4889   11.4186 C.ar    1  UNL1        0.0009
     20 C          64.5031   90.6971   13.0023 C.3     1  UNL1        0.1647
     21 C          65.5085   91.2709   13.9561 C.ar    1  UNL1        0.0112
     22 C          66.9670   91.2588   13.6055 C.ar    1  UNL1       -0.0005
     23 C          67.9724   91.8327   14.5592 C.ar    1  UNL1        0.0112
     24 C          67.5195   92.4187   15.8636 C.ar    1  UNL1        0.0577
     25 CL         68.5250   92.9926   16.8174 Cl      1  UNL1       -0.0822
     26 C          66.0612   92.4308   16.2143 C.ar    1  UNL1        0.0112
     27 C          65.0556   91.8569   15.2605 C.ar    1  UNL1       -0.0005
     28 C          63.7938   90.0369   14.1473 C.ar    1  UNL1        0.0901
     29 C          62.4817   90.4638   14.7358 C.ar    1  UNL1        0.1163
     30 N          62.1490   89.5245   15.8571 N.ar    1  UNL1       -0.2226
     31 C          63.2556   88.5171   15.9616 C.ar    1  UNL1        0.1784
     32 N          64.2720   88.8338   14.9050 N.ar    1  UNL1       -0.3080
     33 C          65.5435   88.0798   14.6505 C.3     1  UNL1        0.1318
     34 C          65.2843   92.8537   11.7822 C.3     1  UNL1        0.1753
     35 O          65.2124   91.3573   11.8574 O.3     1  UNL1       -0.3422
@<TRIPOS>BOND
     1    34    35    1
     2    35    20    1
     3    20    21    1
     4    21    22   ar
     5    22    23   ar
     6    23    24   ar
     7    24    25    1
     8    24    26   ar
     9    26    27   ar
    10    20     1    1
    11     1     2   ar
    12     2     3   ar
    13     3     4   ar
    14     4     5   ar
    15     5     6   ar
    16     5     7   ar
    17     7    13    1
    18    13    14   ar
    19    14    15   ar
    20    15    16   ar
    21    16    17    1
    22    16    18   ar
    23    18    19   ar
    24     7     8   ar
    25     8     9   ar
    26     9    10    2
    27     9    11   ar
    28    11    12    1
    29    20    28    1
    30    28    29   ar
    31    29    30   ar
    32    30    31   ar
    33    31    32   ar
    34    32    33    1
    35    27    21   ar
    36     6     1   ar
    37    19    13   ar
    38    32    28   ar
    39    11     4   ar
@<TRIPOS>MOLECULE
*****
 35 39 0 0 0
SMALL
GASTEIGER

@<TRIPOS>ATOM
      1 C          63.6569   85.9514   13.8176 C.ar    1  UNL1        0.0113
      2 C          64.6290   86.4992   14.8200 C.ar    1  UNL1        0.0001
      3 C          64.9809   87.9572   14.8043 C.ar    1  UNL1        0.0170
      4 C          64.3607   88.8674   13.7860 C.ar    1  UNL1        0.0625
      5 C          63.3886   88.3197   12.7835 C.ar    1  UNL1        0.0158
      6 C          63.0367   86.8616   12.7993 C.ar    1  UNL1        0.0001
      7 C          62.7684   89.2299   11.7653 C.ar    1  UNL1        0.0061
      8 C          63.1203   90.6879   11.7495 C.ar    1  UNL1        0.0608
      9 C          64.0924   91.2358   12.7520 C.ar    1  UNL1        0.2610
     10 O          64.4443   92.6938   12.7362 O.2     1  UNL1       -0.2670
     11 N          64.7126   90.3255   13.7702 N.ar    1  UNL1       -0.2935
     12 C          65.6847   90.8733   14.7727 C.3     1  UNL1        0.1335
     13 C          61.7964   88.6821   10.7628 C.ar    1  UNL1        0.0003
     14 C          60.3270   88.6836   11.0646 C.ar    1  UNL1        0.0009
     15 C          59.3549   88.1358   10.0620 C.ar    1  UNL1        0.0114
     16 C          59.8522   87.5865    8.7578 C.ar    1  UNL1        0.0577
     17 CL         58.8801   87.0387    7.7553 Cl      1  UNL1       -0.0822
     18 C          61.3215   87.5850    8.4561 C.ar    1  UNL1        0.0114
     19 C          62.2936   88.1327    9.4586 C.ar    1  UNL1        0.0009
     20 C          63.3050   84.4933   13.8333 C.3     1  UNL1        0.1647
     21 C          62.9531   83.0353   13.8490 C.ar    1  UNL1        0.0112
     22 C          64.0394   82.0012   13.8208 C.ar    1  UNL1       -0.0005
     23 C          63.6874   80.5431   13.8365 C.ar    1  UNL1        0.0112
     24 C          62.2493   80.1191   13.8805 C.ar    1  UNL1        0.0577
     25 CL         61.8974   78.6611   13.8962 Cl      1  UNL1       -0.0822
     26 C          61.1630   81.1532   13.9087 C.ar    1  UNL1        0.0112
     27 C          61.5149   82.6113   13.8930 C.ar    1  UNL1       -0.0005
     28 C          62.9579   84.5614   12.3757 C.ar    1  UNL1        0.0901
     29 C          61.7484   85.2256   11.7874 C.ar    1  UNL1        0.1163
     30 N          61.8023   85.0519   10.2984 N.ar    1  UNL1       -0.2226
     31 C          63.0452   84.2803    9.9665 C.ar    1  UNL1        0.1784
     32 N          63.7593   83.9772   11.2502 N.ar    1  UNL1       -0.3080
     33 C          65.0485   83.2224   11.3850 C.3     1  UNL1        0.1318
     34 C          62.6013   84.6990   16.3258 C.3     1  UNL1        0.1753
     35 O          63.6521   84.4252   15.2910 O.3     1  UNL1       -0.3422
@<TRIPOS>BOND
     1    34    35    1
     2    35    20    1
     3    20    21    1
     4    21    22   ar
     5    22    23   ar
     6    23    24   ar
     7    24    25    1
     8    24    26   ar
     9    26    27   ar
    10    20     1    1
    11     1     2   ar
    12     2     3   ar
    13     3     4   ar
    14     4     5   ar
    15     5     6   ar
    16     5     7   ar
    17     7    13    1
    18    13    14   ar
    19    14    15   ar
    20    15    16   ar
    21    16    17    1
    22    16    18   ar
    23    18    19   ar
    24     7     8   ar
    25     8     9   ar
    26     9    10    2
    27     9    11   ar
    28    11    12    1
    29    20    28    1
    30    28    29   ar
    31    29    30   ar
    32    30    31   ar
    33    31    32   ar
    34    32    33    1
    35    27    21   ar
    36     6     1   ar
    37    19    13   ar
    38    32    28   ar
    39    11     4   ar
