@<TRIPOS>MOLECULE
*****
 29 32 0 0 0
SMALL
GASTEIGER

@<TRIPOS>ATOM
      1 C          64.1060   90.5239   14.8810 C.2     1  UNL1       -0.0021
      2 C          63.6755   91.2274   16.1338 C.2     1  UNL1        0.0942
      3 N          63.2464   90.1870   17.1255 N.2     1  UNL1       -0.2482
      4 C          63.4118   88.8404   16.4856 C.2     1  UNL1        0.0633
      5 C          63.1473   87.4516   16.9868 C.3     1  UNL1        0.0753
      6 C          63.4141   86.2711   16.1008 C.2     1  UNL1        0.0203
      7 C          63.9454   86.4793   14.7136 C.2     1  UNL1        0.1317
      8 C          64.2099   87.8681   14.2123 C.2     1  UNL1        0.0407
      9 C          63.9431   89.0487   15.0983 C.2     1  UNL1        0.0148
     10 C          65.6208   92.4932   11.1289 C.3     1  UNL1        0.0540
     11 C          64.3130   91.7586   11.1150 C.3     1  UNL1        0.0160
     12 C          63.8081   91.1022   12.3657 C.3     1  UNL1        0.0058
     13 C          64.6109   91.1803   13.6303 C.3     1  UNL1        0.0240
     14 C          65.9188   91.9148   13.6442 C.3     1  UNL1        0.0058
     15 C          66.4237   92.5713   12.3935 C.3     1  UNL1        0.0160
     16 N          66.1257   93.1496    9.8782 N.3     1  UNL1       -0.2985
     17 H          65.7952   92.5852    9.0955 H       1  UNL1        0.1232
     18 C          68.4607   92.1939    9.2586 C.3     1  UNL1        0.0185
     19 C          67.5989   93.3479    9.6775 C.3     1  UNL1        0.0686
     20 N          64.2122   85.2986   13.8275 N.pl3   1  UNL1       -0.1992
     21 H          65.1211   84.9254   13.7652 H       1  UNL1        0.2985
     22 C          63.0943   84.6867   13.0366 C.2     1  UNL1        0.3224
     23 N          62.2681   85.5409   12.1212 N.2     1  UNL1       -0.0985
     24 H          62.4595   86.5031   12.0396 H       1  UNL1        0.3633
     25 C          62.8025   83.2206   13.1609 C.ar    1  UNL1        0.1114
     26 C          62.9352   82.1997   12.0700 C.ar    1  UNL1        0.0144
     27 C          62.5415   80.8661   12.6328 C.ar    1  UNL1        0.0077
     28 C          62.1655   81.0629   14.0715 C.ar    1  UNL1        0.0357
     29 S          62.3268   82.5181   14.3979 S.2     1  UNL1       -0.0792
@<TRIPOS>BOND
     1    18    19    1
     2    19    16    1
     3    10    16    1
     4    10    11    1
     5    11    12    1
     6    12    13    1
     7    13     1    1
     8     1     2    2
     9     2     3    1
    10     3     4    2
    11     4     5    1
    12     5     6    1
    13     6     7    2
    14     7    20    1
    15    20    22    1
    16    22    23    2
    17    22    25    1
    18    25    26   ar
    19    26    27   ar
    20    27    28   ar
    21    28    29   ar
    22     7     8    1
    23     8     9    2
    24    13    14    1
    25    14    15    1
    26    15    10    1
    27     9     1    1
    28     9     4    1
    29    29    25   ar
    30    16    17    1
    31    20    21    1
    32    23    24    1
@<TRIPOS>MOLECULE
*****
 29 32 0 0 0
SMALL
GASTEIGER

@<TRIPOS>ATOM
      1 C          62.8197   90.1504   11.3382 C.2     1  UNL1       -0.0021
      2 C          61.7917   90.6919   10.3896 C.2     1  UNL1        0.0942
      3 N          60.9175   89.5534    9.9543 N.2     1  UNL1       -0.2482
      4 C          61.4052   88.3082   10.6338 C.2     1  UNL1        0.0633
      5 C          60.9306   86.8862   10.5843 C.3     1  UNL1        0.0753
      6 C          61.6318   85.8331   11.3901 C.2     1  UNL1        0.0203
      7 C          62.8075   86.2021   12.2454 C.2     1  UNL1        0.1317
      8 C          63.2820   87.6241   12.2950 C.2     1  UNL1        0.0407
      9 C          62.5809   88.6772   11.4892 C.2     1  UNL1        0.0148
     10 C          66.0529   92.5279   13.3738 C.3     1  UNL1        0.0540
     11 C          65.2866   91.4926   14.1424 C.3     1  UNL1        0.0160
     12 C          64.2088   90.7001   13.4638 C.3     1  UNL1        0.0058
     13 C          63.8974   90.9429   12.0168 C.3     1  UNL1        0.0240
     14 C          64.6639   91.9783   11.2482 C.3     1  UNL1        0.0058
     15 C          65.7416   92.7708   11.9268 C.3     1  UNL1        0.0160
     16 N          67.1307   93.3205   14.0524 N.3     1  UNL1       -0.2985
     17 H          68.0114   93.0600   13.6087 H       1  UNL1        0.1232
     18 C          68.4700   92.3645   16.0629 C.3     1  UNL1        0.0185
     19 C          67.3369   93.1921   15.5326 C.3     1  UNL1        0.0686
     20 N          63.5086   85.1489   13.0513 N.pl3   1  UNL1       -0.1992
     21 H          64.4920   85.1017   13.0502 H       1  UNL1        0.2985
     22 C          62.7115   84.1677   13.8586 C.2     1  UNL1        0.3224
     23 N          62.0250   84.6133   15.1157 N.2     1  UNL1       -0.0985
     24 H          62.0976   85.5497   15.4108 H       1  UNL1        0.3633
     25 C          62.6009   82.7409   13.4089 C.ar    1  UNL1        0.1114
     26 C          63.0233   82.2020   12.0743 C.ar    1  UNL1        0.0144
     27 C          62.7319   80.7306   12.0554 C.ar    1  UNL1        0.0077
     28 C          62.1296   80.3603   13.3784 C.ar    1  UNL1        0.0357
     29 S          62.0486   81.6028   14.2149 S.2     1  UNL1       -0.0792
@<TRIPOS>BOND
     1    18    19    1
     2    19    16    1
     3    10    16    1
     4    10    11    1
     5    11    12    1
     6    12    13    1
     7    13     1    1
     8     1     2    2
     9     2     3    1
    10     3     4    2
    11     4     5    1
    12     5     6    1
    13     6     7    2
    14     7    20    1
    15    20    22    1
    16    22    23    2
    17    22    25    1
    18    25    26   ar
    19    26    27   ar
    20    27    28   ar
    21    28    29   ar
    22     7     8    1
    23     8     9    2
    24    13    14    1
    25    14    15    1
    26    15    10    1
    27     9     1    1
    28     9     4    1
    29    29    25   ar
    30    16    17    1
    31    20    21    1
    32    23    24    1
@<TRIPOS>MOLECULE
*****
 29 32 0 0 0
SMALL
GASTEIGER

@<TRIPOS>ATOM
      1 C          61.7446   86.2975    9.7959 C.2     1  UNL1       -0.0021
      2 C          60.9916   86.1763    8.5043 C.2     1  UNL1        0.0942
      3 N          60.4168   87.5221    8.1748 N.2     1  UNL1       -0.2482
      4 C          60.8145   88.4750    9.2629 C.2     1  UNL1        0.0633
      5 C          60.5354   89.9340    9.4707 C.3     1  UNL1        0.0753
      6 C          61.0770   90.6362   10.6805 C.2     1  UNL1        0.0203
      7 C          61.8976   89.8794   11.6824 C.2     1  UNL1        0.1317
      8 C          62.1767   88.4204   11.4745 C.2     1  UNL1        0.0407
      9 C          61.6351   87.7182   10.2648 C.2     1  UNL1        0.0148
     10 C          63.9455   82.9813   11.8957 C.3     1  UNL1        0.0540
     11 C          63.0757   83.9185   12.6801 C.3     1  UNL1        0.0160
     12 C          62.3421   85.0238   11.9801 C.3     1  UNL1        0.0058
     13 C          62.4782   85.1921   10.4959 C.3     1  UNL1        0.0240
     14 C          63.3481   84.2550    9.7115 C.3     1  UNL1        0.0058
     15 C          64.0817   83.1496   10.4114 C.3     1  UNL1        0.0160
     16 N          64.6792   81.8760   12.5957 N.3     1  UNL1       -0.2985
     17 H          65.0917   81.2904   11.8695 H       1  UNL1        0.1232
     18 C          62.6227   80.3754   13.1145 C.3     1  UNL1        0.0185
     19 C          63.9425   80.9581   13.5256 C.3     1  UNL1        0.0686
     20 N          62.4392   90.5817   12.8922 N.pl3   1  UNL1       -0.1992
     21 H          61.8220   90.9833   13.5457 H       1  UNL1        0.2985
     22 C          63.9210   90.6722   13.1063 C.2     1  UNL1        0.3224
     23 N          64.6018   89.7249   14.0493 N.2     1  UNL1       -0.0985
     24 H          64.0760   89.0439   14.5278 H       1  UNL1        0.3633
     25 C          64.7222   91.7099   12.3773 C.ar    1  UNL1        0.1114
     26 C          64.6049   92.0522   10.9216 C.ar    1  UNL1        0.0144
     27 C          65.5915   93.1413   10.6206 C.ar    1  UNL1        0.0077
     28 C          66.3185   93.4721   11.8904 C.ar    1  UNL1        0.0357
     29 S          65.7812   92.5874   12.9760 S.2     1  UNL1       -0.0792
@<TRIPOS>BOND
     1    18    19    1
     2    19    16    1
     3    10    16    1
     4    10    11    1
     5    11    12    1
     6    12    13    1
     7    13     1    1
     8     1     2    2
     9     2     3    1
    10     3     4    2
    11     4     5    1
    12     5     6    1
    13     6     7    2
    14     7    20    1
    15    20    22    1
    16    22    23    2
    17    22    25    1
    18    25    26   ar
    19    26    27   ar
    20    27    28   ar
    21    28    29   ar
    22     7     8    1
    23     8     9    2
    24    13    14    1
    25    14    15    1
    26    15    10    1
    27     9     1    1
    28     9     4    1
    29    29    25   ar
    30    16    17    1
    31    20    21    1
    32    23    24    1
@<TRIPOS>MOLECULE
*****
 29 32 0 0 0
SMALL
GASTEIGER

@<TRIPOS>ATOM
      1 C          62.1167   86.6633   11.1758 C.2     1  UNL1       -0.0021
      2 C          62.3845   85.2114   11.4407 C.2     1  UNL1        0.0942
      3 N          63.2543   85.1153   12.6589 N.2     1  UNL1       -0.2482
      4 C          63.5242   86.5078   13.1470 C.2     1  UNL1        0.0633
      5 C          64.3192   87.0281   14.3076 C.3     1  UNL1        0.0753
      6 C          64.4112   88.5053   14.5515 C.2     1  UNL1        0.0203
      7 C          63.7081   89.4620   13.6349 C.2     1  UNL1        0.1317
      8 C          62.9130   88.9417   12.4743 C.2     1  UNL1        0.0407
      9 C          62.8211   87.4645   12.2303 C.2     1  UNL1        0.0148
     10 C          59.6359   88.3242    7.8087 C.3     1  UNL1        0.0540
     11 C          59.8590   86.8448    7.9170 C.3     1  UNL1        0.0160
     12 C          60.6860   86.2912    9.0394 C.3     1  UNL1        0.0058
     13 C          61.2898   87.2169   10.0534 C.3     1  UNL1        0.0240
     14 C          61.0666   88.6963    9.9451 C.3     1  UNL1        0.0058
     15 C          60.2397   89.2499    8.8228 C.3     1  UNL1        0.0160
     16 N          58.8089   88.8778    6.6863 N.3     1  UNL1       -0.2985
     17 H          58.6749   88.1194    6.0175 H       1  UNL1        0.1232
     18 C          58.3197   91.0530    5.3525 C.3     1  UNL1        0.0185
     19 C          59.2995   90.0613    5.9063 C.3     1  UNL1        0.0686
     20 N          63.8001   90.9392   13.8789 N.pl3   1  UNL1       -0.1992
     21 H          63.4557   91.5715   13.2074 H       1  UNL1        0.2985
     22 C          64.4166   91.4531   15.1461 C.2     1  UNL1        0.3224
     23 N          63.6076   91.5003   16.4083 N.2     1  UNL1       -0.0985
     24 H          62.6720   91.1940   16.4051 H       1  UNL1        0.3633
     25 C          65.8422   91.9198   15.1510 C.ar    1  UNL1        0.1114
     26 C          66.5246   92.6571   16.2649 C.ar    1  UNL1        0.0144
     27 C          67.9398   92.9242   15.8452 C.ar    1  UNL1        0.0077
     28 C          68.1319   92.3519   14.4720 C.ar    1  UNL1        0.0357
     29 S          66.8355   91.7312   14.0430 S.2     1  UNL1       -0.0792
@<TRIPOS>BOND
     1    18    19    1
     2    19    16    1
     3    10    16    1
     4    10    11    1
     5    11    12    1
     6    12    13    1
     7    13     1    1
     8     1     2    2
     9     2     3    1
    10     3     4    2
    11     4     5    1
    12     5     6    1
    13     6     7    2
    14     7    20    1
    15    20    22    1
    16    22    23    2
    17    22    25    1
    18    25    26   ar
    19    26    27   ar
    20    27    28   ar
    21    28    29   ar
    22     7     8    1
    23     8     9    2
    24    13    14    1
    25    14    15    1
    26    15    10    1
    27     9     1    1
    28     9     4    1
    29    29    25   ar
    30    16    17    1
    31    20    21    1
    32    23    24    1
@<TRIPOS>MOLECULE
*****
 29 32 0 0 0
SMALL
GASTEIGER

@<TRIPOS>ATOM
      1 C          61.6606   86.4842   10.0733 C.2     1  UNL1       -0.0021
      2 C          60.6852   86.3558    8.9410 C.2     1  UNL1        0.0942
      3 N          60.1769   87.7276    8.6094 N.2     1  UNL1       -0.2482
      4 C          60.8381   88.7037    9.5368 C.2     1  UNL1        0.0633
      5 C          60.7237   90.1929    9.6743 C.3     1  UNL1        0.0753
      6 C          61.5262   90.9137   10.7165 C.2     1  UNL1        0.0203
      7 C          62.4433   90.1452   11.6213 C.2     1  UNL1        0.1317
      8 C          62.5577   88.6560   11.4837 C.2     1  UNL1        0.0407
      9 C          61.7551   87.9352   10.4415 C.2     1  UNL1        0.0148
     10 C          63.9087   83.1087   12.0233 C.3     1  UNL1        0.0540
     11 C          63.9666   83.2874   10.5351 C.3     1  UNL1        0.0160
     12 C          63.2172   84.4125    9.8851 C.3     1  UNL1        0.0058
     13 C          62.4100   85.3590   10.7232 C.3     1  UNL1        0.0240
     14 C          62.3522   85.1803   12.2115 C.3     1  UNL1        0.0058
     15 C          63.1016   84.0552   12.8615 C.3     1  UNL1        0.0160
     16 N          64.6581   81.9835   12.6733 N.3     1  UNL1       -0.2985
     17 H          65.1118   81.4605   11.9243 H       1  UNL1        0.1232
     18 C          62.5891   80.4646   13.0756 C.3     1  UNL1        0.0185
     19 C          63.9254   80.9834   13.5175 C.3     1  UNL1        0.0686
     20 N          63.2459   90.8661   12.6635 N.pl3   1  UNL1       -0.1992
     21 H          62.9712   90.8304   13.6083 H       1  UNL1        0.2985
     22 C          64.4670   91.6414   12.2664 C.2     1  UNL1        0.3224
     23 N          64.6580   92.0603   10.8388 N.2     1  UNL1       -0.0985
     24 H          63.9819   91.8264   10.1625 H       1  UNL1        0.3633
     25 C          65.4971   91.9979   13.2969 C.ar    1  UNL1        0.1114
     26 C          65.8442   91.1905   14.5125 C.ar    1  UNL1        0.0144
     27 C          66.9226   91.9178   15.2596 C.ar    1  UNL1        0.0077
     28 C          67.2420   93.1747   14.5056 C.ar    1  UNL1        0.0357
     29 S          66.3610   93.2241   13.2926 S.2     1  UNL1       -0.0792
@<TRIPOS>BOND
     1    18    19    1
     2    19    16    1
     3    10    16    1
     4    10    11    1
     5    11    12    1
     6    12    13    1
     7    13     1    1
     8     1     2    2
     9     2     3    1
    10     3     4    2
    11     4     5    1
    12     5     6    1
    13     6     7    2
    14     7    20    1
    15    20    22    1
    16    22    23    2
    17    22    25    1
    18    25    26   ar
    19    26    27   ar
    20    27    28   ar
    21    28    29   ar
    22     7     8    1
    23     8     9    2
    24    13    14    1
    25    14    15    1
    26    15    10    1
    27     9     1    1
    28     9     4    1
    29    29    25   ar
    30    16    17    1
    31    20    21    1
    32    23    24    1
@<TRIPOS>MOLECULE
*****
 29 32 0 0 0
SMALL
GASTEIGER

@<TRIPOS>ATOM
      1 C          61.9229   86.5765   10.4451 C.2     1  UNL1       -0.0021
      2 C          60.9235   86.6785    9.3312 C.2     1  UNL1        0.0942
      3 N          60.6215   88.1312    9.1111 N.2     1  UNL1       -0.2482
      4 C          61.4343   88.9270   10.0889 C.2     1  UNL1        0.0633
      5 C          61.5459   90.4024   10.3351 C.3     1  UNL1        0.0753
      6 C          62.4618   90.9169   11.4057 C.2     1  UNL1        0.0203
      7 C          63.2662   89.9560   12.2302 C.2     1  UNL1        0.1317
      8 C          63.1546   88.4806   11.9840 C.2     1  UNL1        0.0407
      9 C          62.2386   87.9661   10.9134 C.2     1  UNL1        0.0148
     10 C          63.6680   82.7697   12.0925 C.3     1  UNL1        0.0540
     11 C          62.9464   83.7193   13.0022 C.3     1  UNL1        0.0160
     12 C          62.3647   84.9882   12.4531 C.3     1  UNL1        0.0058
     13 C          62.5046   85.3076   10.9942 C.3     1  UNL1        0.0240
     14 C          63.2262   84.3580   10.0844 C.3     1  UNL1        0.0058
     15 C          63.8079   83.0891   10.6336 C.3     1  UNL1        0.0160
     16 N          64.2496   81.5008   12.6417 N.3     1  UNL1       -0.2985
     17 H          64.3928   80.8752   11.8489 H       1  UNL1        0.1232
     18 C          62.1967   80.0645   13.3290 C.3     1  UNL1        0.0185
     19 C          63.4997   80.7197   13.6797 C.3     1  UNL1        0.0686
     20 N          64.1822   90.4706   13.3009 N.pl3   1  UNL1       -0.1992
     21 H          65.0315   90.9038   13.0556 H       1  UNL1        0.2985
     22 C          63.8040   90.3251   14.7451 C.2     1  UNL1        0.3224
     23 N          63.4998   91.5424   15.5670 N.2     1  UNL1       -0.0985
     24 H          63.5483   92.4369   15.1586 H       1  UNL1        0.3633
     25 C          63.7301   88.9622   15.3674 C.ar    1  UNL1        0.1114
     26 C          64.3564   87.7110   14.8267 C.ar    1  UNL1        0.0144
     27 C          64.0303   86.5868   15.7648 C.ar    1  UNL1        0.0077
     28 C          63.2024   87.1433   16.8851 C.ar    1  UNL1        0.0357
     29 S          63.0169   88.6113   16.6395 S.2     1  UNL1       -0.0792
@<TRIPOS>BOND
     1    18    19    1
     2    19    16    1
     3    10    16    1
     4    10    11    1
     5    11    12    1
     6    12    13    1
     7    13     1    1
     8     1     2    2
     9     2     3    1
    10     3     4    2
    11     4     5    1
    12     5     6    1
    13     6     7    2
    14     7    20    1
    15    20    22    1
    16    22    23    2
    17    22    25    1
    18    25    26   ar
    19    26    27   ar
    20    27    28   ar
    21    28    29   ar
    22     7     8    1
    23     8     9    2
    24    13    14    1
    25    14    15    1
    26    15    10    1
    27     9     1    1
    28     9     4    1
    29    29    25   ar
    30    16    17    1
    31    20    21    1
    32    23    24    1
@<TRIPOS>MOLECULE
*****
 29 32 0 0 0
SMALL
GASTEIGER

@<TRIPOS>ATOM
      1 C          63.8033   89.1611   15.2483 C.2     1  UNL1       -0.0021
      2 C          63.3520   89.5438   16.6266 C.2     1  UNL1        0.0942
      3 N          63.0575   88.2833   17.3845 N.2     1  UNL1       -0.2482
      4 C          63.3268   87.1216   16.4746 C.2     1  UNL1        0.0633
      5 C          63.2118   85.6399   16.6778 C.3     1  UNL1        0.0753
      6 C          63.5577   84.7007   15.5606 C.2     1  UNL1        0.0203
      7 C          64.0186   85.2432   14.2403 C.2     1  UNL1        0.1317
      8 C          64.1336   86.7249   14.0371 C.2     1  UNL1        0.0407
      9 C          63.7877   87.6641   15.1543 C.2     1  UNL1        0.0148
     10 C          64.9948   92.0047   11.9704 C.3     1  UNL1        0.0540
     11 C          63.7973   91.1185   11.7959 C.3     1  UNL1        0.0160
     12 C          63.4001   90.1706   12.8886 C.3     1  UNL1        0.0058
     13 C          64.2004   90.1089   14.1556 C.3     1  UNL1        0.0240
     14 C          65.3981   90.9952   14.3301 C.3     1  UNL1        0.0058
     15 C          65.7953   91.9430   13.2375 C.3     1  UNL1        0.0160
     16 N          65.3920   92.9525   10.8777 N.3     1  UNL1       -0.2985
     17 H          66.0249   92.4427   10.2613 H       1  UNL1        0.1232
     18 C          66.7748   95.0276   10.1485 C.3     1  UNL1        0.0185
     19 C          66.0682   94.2476   11.2174 C.3     1  UNL1        0.0686
     20 N          64.3646   84.3039   13.1230 N.pl3   1  UNL1       -0.1992
     21 H          65.2962   84.0120   12.9960 H       1  UNL1        0.2985
     22 C          63.2912   83.8094   12.1994 C.2     1  UNL1        0.3224
     23 N          62.5782   82.5239   12.4982 N.2     1  UNL1       -0.0985
     24 H          62.8148   82.0048   13.3006 H       1  UNL1        0.3633
     25 C          62.9306   84.6003   10.9769 C.ar    1  UNL1        0.1114
     26 C          63.4559   84.3696    9.5910 C.ar    1  UNL1        0.0144
     27 C          62.8314   85.3875    8.6832 C.ar    1  UNL1        0.0077
     28 C          61.9202   86.2473    9.5082 C.ar    1  UNL1        0.0357
     29 S          61.9816   85.7608   10.9257 S.2     1  UNL1       -0.0792
@<TRIPOS>BOND
     1    18    19    1
     2    19    16    1
     3    10    16    1
     4    10    11    1
     5    11    12    1
     6    12    13    1
     7    13     1    1
     8     1     2    2
     9     2     3    1
    10     3     4    2
    11     4     5    1
    12     5     6    1
    13     6     7    2
    14     7    20    1
    15    20    22    1
    16    22    23    2
    17    22    25    1
    18    25    26   ar
    19    26    27   ar
    20    27    28   ar
    21    28    29   ar
    22     7     8    1
    23     8     9    2
    24    13    14    1
    25    14    15    1
    26    15    10    1
    27     9     1    1
    28     9     4    1
    29    29    25   ar
    30    16    17    1
    31    20    21    1
    32    23    24    1
@<TRIPOS>MOLECULE
*****
 29 32 0 0 0
SMALL
GASTEIGER

@<TRIPOS>ATOM
      1 C          62.2665   87.0254   10.5907 C.2     1  UNL1       -0.0021
      2 C          61.4666   87.5412    9.4313 C.2     1  UNL1        0.0942
      3 N          61.3734   89.0328    9.5595 N.2     1  UNL1       -0.2482
      4 C          62.1156   89.4389   10.7981 C.2     1  UNL1        0.0633
      5 C          62.3601   90.7781   11.4280 C.3     1  UNL1        0.0753
      6 C          63.1566   90.8766   12.6952 C.2     1  UNL1        0.0203
      7 C          63.7086   89.6360   13.3325 C.2     1  UNL1        0.1317
      8 C          63.4641   88.2968   12.7026 C.2     1  UNL1        0.0407
      9 C          62.6676   88.1983   11.4354 C.2     1  UNL1        0.0148
     10 C          63.2842   82.7162   11.3937 C.3     1  UNL1        0.0540
     11 C          62.6814   83.5591   12.4781 C.3     1  UNL1        0.0160
     12 C          62.3422   84.9955   12.2104 C.3     1  UNL1        0.0058
     13 C          62.6057   85.5890   10.8584 C.3     1  UNL1        0.0240
     14 C          63.2085   84.7460    9.7738 C.3     1  UNL1        0.0058
     15 C          63.5478   83.3096   10.0415 C.3     1  UNL1        0.0160
     16 N          63.6234   81.2798   11.6613 N.3     1  UNL1       -0.2985
     17 H          63.8279   80.8522   10.7581 H       1  UNL1        0.1232
     18 C          62.5771   80.3379   13.8449 C.3     1  UNL1        0.0185
     19 C          62.6295   80.3895   12.3467 C.3     1  UNL1        0.0686
     20 N          64.5052   89.7346   14.5997 N.pl3   1  UNL1       -0.1992
     21 H          64.9378   88.9328   14.9729 H       1  UNL1        0.2985
     22 C          64.6426   91.0548   15.2984 C.2     1  UNL1        0.3224
     23 N          63.5110   91.5860   16.1274 N.2     1  UNL1       -0.0985
     24 H          62.6780   91.0681   16.2130 H       1  UNL1        0.3633
     25 C          65.9116   91.8438   15.1681 C.ar    1  UNL1        0.1114
     26 C          66.5364   92.6914   16.2364 C.ar    1  UNL1        0.0144
     27 C          67.7896   93.2953   15.6752 C.ar    1  UNL1        0.0077
     28 C          67.9393   92.8208   14.2600 C.ar    1  UNL1        0.0357
     29 S          66.7787   91.9238   13.9467 S.2     1  UNL1       -0.0792
@<TRIPOS>BOND
     1    18    19    1
     2    19    16    1
     3    10    16    1
     4    10    11    1
     5    11    12    1
     6    12    13    1
     7    13     1    1
     8     1     2    2
     9     2     3    1
    10     3     4    2
    11     4     5    1
    12     5     6    1
    13     6     7    2
    14     7    20    1
    15    20    22    1
    16    22    23    2
    17    22    25    1
    18    25    26   ar
    19    26    27   ar
    20    27    28   ar
    21    28    29   ar
    22     7     8    1
    23     8     9    2
    24    13    14    1
    25    14    15    1
    26    15    10    1
    27     9     1    1
    28     9     4    1
    29    29    25   ar
    30    16    17    1
    31    20    21    1
    32    23    24    1
@<TRIPOS>MOLECULE
*****
 29 32 0 0 0
SMALL
GASTEIGER

@<TRIPOS>ATOM
      1 C          62.1158   86.6216   11.0938 C.2     1  UNL1       -0.0021
      2 C          62.3978   85.1681   11.3342 C.2     1  UNL1        0.0942
      3 N          63.2613   85.0593   12.5558 N.2     1  UNL1       -0.2482
      4 C          63.5130   86.4456   13.0705 C.2     1  UNL1        0.0633
      5 C          64.2954   86.9535   14.2452 C.3     1  UNL1        0.0753
      6 C          64.3697   88.4269   14.5163 C.2     1  UNL1        0.0203
      7 C          63.6617   89.3924   13.6127 C.2     1  UNL1        0.1317
      8 C          62.8794   88.8845   12.4380 C.2     1  UNL1        0.0407
      9 C          62.8050   87.4111   12.1669 C.2     1  UNL1        0.0148
     10 C          59.6371   88.3159    7.7418 C.3     1  UNL1        0.0540
     11 C          60.2937   89.2357    8.7282 C.3     1  UNL1        0.0160
     12 C          61.1199   88.6709    9.8455 C.3     1  UNL1        0.0058
     13 C          61.2896   87.1864    9.9765 C.3     1  UNL1        0.0240
     14 C          60.6330   86.2665    8.9901 C.3     1  UNL1        0.0058
     15 C          59.8068   86.8313    7.8728 C.3     1  UNL1        0.0160
     16 N          58.8109   88.8807    6.6245 N.3     1  UNL1       -0.2985
     17 H          58.7143   88.1424    5.9274 H       1  UNL1        0.1232
     18 C          58.2699   91.0750    5.3430 C.3     1  UNL1        0.0185
     19 C          59.2739   90.1069    5.8951 C.3     1  UNL1        0.0686
     20 N          63.7361   90.8659   13.8838 N.pl3   1  UNL1       -0.1992
     21 H          62.9176   91.3686   14.0996 H       1  UNL1        0.2985
     22 C          65.0575   91.5733   13.8261 C.2     1  UNL1        0.3224
     23 N          66.0235   91.4523   14.9673 N.2     1  UNL1       -0.0985
     24 H          65.7902   90.9085   15.7541 H       1  UNL1        0.3633
     25 C          65.4130   92.4018   12.6272 C.ar    1  UNL1        0.1114
     26 C          64.9828   92.1385   11.2146 C.ar    1  UNL1        0.0144
     27 C          65.5650   93.2130   10.3448 C.ar    1  UNL1        0.0077
     28 C          66.3551   94.1404   11.2199 C.ar    1  UNL1        0.0357
     29 S          66.2611   93.6390   12.6305 S.2     1  UNL1       -0.0792
@<TRIPOS>BOND
     1    18    19    1
     2    19    16    1
     3    10    16    1
     4    10    11    1
     5    11    12    1
     6    12    13    1
     7    13     1    1
     8     1     2    2
     9     2     3    1
    10     3     4    2
    11     4     5    1
    12     5     6    1
    13     6     7    2
    14     7    20    1
    15    20    22    1
    16    22    23    2
    17    22    25    1
    18    25    26   ar
    19    26    27   ar
    20    27    28   ar
    21    28    29   ar
    22     7     8    1
    23     8     9    2
    24    13    14    1
    25    14    15    1
    26    15    10    1
    27     9     1    1
    28     9     4    1
    29    29    25   ar
    30    16    17    1
    31    20    21    1
    32    23    24    1
