@<TRIPOS>MOLECULE
*****
 37 41 0 0 0
SMALL
GASTEIGER

@<TRIPOS>ATOM
      1 C          62.5747   88.7912   10.7732 C.3     1  UNL1        0.1169
      2 N          63.4338   89.8783   11.3480 N.am    1  UNL1       -0.2549
      3 C          63.6550   91.2361   10.7503 C.2     1  UNL1        0.3172
      4 O          63.0561   91.7452    9.4728 O.2     1  UNL1       -0.2516
      5 N          64.5804   91.9953   11.6543 N.am    1  UNL1       -0.1909
      6 C          64.9310   91.1068   12.8108 C.2     1  UNL1        0.2544
      7 O          65.4789   91.5054   13.3813 O.2     1  UNL1       -0.2723
      8 C          64.2223   89.7983   12.6215 C.3     1  UNL1        0.1545
      9 C          63.5137   88.4899   12.4322 C.3     1  UNL1        0.1196
     10 N          63.8643   87.6013   13.5887 N.pl3   1  UNL1       -0.2907
     11 C          64.7897   88.3605   14.4928 C.3     1  UNL1        0.0987
     12 C          65.0109   89.7184   13.8950 C.3     1  UNL1        0.0689
     13 C          65.0692   93.3971   11.4396 C.ar    1  UNL1        0.0639
     14 C          65.7251   94.1432   12.5635 C.ar    1  UNL1        0.0268
     15 C          66.2139   95.5449   12.3486 C.ar    1  UNL1        0.0598
     16 CL         66.8697   96.2910   13.4726 Cl      1  UNL1       -0.0822
     17 C          66.0469   96.2005   11.0099 C.ar    1  UNL1        0.0229
     18 C          65.3911   95.4545    9.8860 C.ar    1  UNL1        0.0598
     19 CL         65.2241   96.1102    8.5472 Cl      1  UNL1       -0.0822
     20 C          64.9022   94.0527   10.1008 C.ar    1  UNL1        0.0268
     21 C          63.3755   86.1995   13.8035 C.ar    1  UNL1        0.1318
     22 C          63.1225   85.3048   12.6264 C.ar    1  UNL1        0.0344
     23 C          62.6336   83.9031   12.8413 C.ar    1  UNL1        0.0055
     24 C          62.3977   83.3960   14.2331 C.ar    1  UNL1        0.0332
     25 C          62.6507   84.2907   15.4102 C.ar    1  UNL1        0.1014
     26 N          63.1396   85.6925   15.1953 N.ar    1  UNL1       -0.2291
     27 C          61.9088   81.9943   14.4479 C.2     1  UNL1        0.0744
     28 O          60.4364   81.7148   14.5099 O.co2   1  UNL1       -0.5445
     29 O          62.8924   80.8721   14.6007 O.co2   1  UNL1       -0.5445
     30 C          65.8699   90.8054   14.4698 C.ar    1  UNL1       -0.0187
     31 C          65.3448   91.6694   15.5779 C.ar    1  UNL1       -0.0035
     32 C          66.2039   92.7564   16.1526 C.ar    1  UNL1        0.0100
     33 C          67.5881   92.9795   15.6193 C.ar    1  UNL1        0.0684
     34 C          68.1132   92.1156   14.5112 C.ar    1  UNL1        0.0100
     35 C          67.2540   91.0285   13.9365 C.ar    1  UNL1       -0.0035
     36 C          68.4471   94.0666   16.1940 C.1     1  UNL1        0.1004
     37 N          69.3061   95.1537   16.7688 N.1     1  UNL1       -0.1908
@<TRIPOS>UNITY_ATOM_ATTR
28 1
charge -1
@<TRIPOS>BOND
     1     1     2    1
     2     2     3   am
     3     3     4    2
     4     3     5   am
     5     5    13    1
     6    13    14   ar
     7    14    15   ar
     8    15    16    1
     9    15    17   ar
    10    17    18   ar
    11    18    19    1
    12    18    20   ar
    13     5     6   am
    14     6     7    2
    15     6     8    1
    16     8     9    1
    17     9    10    1
    18    10    21    1
    19    21    22   ar
    20    22    23   ar
    21    23    24   ar
    22    24    27    1
    23    27    28   ar
    24    27    29   ar
    25    24    25   ar
    26    25    26   ar
    27    10    11    1
    28    11    12    1
    29    12    30    1
    30    30    31   ar
    31    31    32   ar
    32    32    33   ar
    33    33    36    1
    34    36    37    3
    35    33    34   ar
    36    34    35   ar
    37     8     2    1
    38    26    21   ar
    39    35    30   ar
    40    20    13   ar
    41    12     8    1
@<TRIPOS>MOLECULE
*****
 37 41 0 0 0
SMALL
GASTEIGER

@<TRIPOS>ATOM
      1 C          62.6096   88.8176   10.7958 C.3     1  UNL1        0.1169
      2 N          63.4662   89.9078   11.3682 N.am    1  UNL1       -0.2549
      3 C          63.6786   91.2674   10.7713 C.2     1  UNL1        0.3172
      4 O          63.0718   91.7755    9.4972 O.2     1  UNL1       -0.2516
      5 N          64.6045   92.0297   11.6723 N.am    1  UNL1       -0.1909
      6 C          64.9642   91.1412   12.8261 C.2     1  UNL1        0.2544
      7 O          65.5128   91.5416   13.3947 O.2     1  UNL1       -0.2723
      8 C          64.2607   89.8297   12.6381 C.3     1  UNL1        0.1545
      9 C          63.5572   88.5183   12.4502 C.3     1  UNL1        0.1196
     10 N          63.9170   87.6299   13.6039 N.pl3   1  UNL1       -0.2907
     11 C          64.8428   88.3921   14.5049 C.3     1  UNL1        0.0987
     12 C          65.0553   89.7517   13.9080 C.3     1  UNL1        0.0689
     13 C          65.0860   93.4340   11.4573 C.ar    1  UNL1        0.0639
     14 C          64.9066   94.0920   10.1213 C.ar    1  UNL1        0.0268
     15 C          65.3881   95.4963    9.9064 C.ar    1  UNL1        0.0598
     16 CL         65.2087   96.1544    8.5705 Cl      1  UNL1       -0.0822
     17 C          66.0490   96.2424   11.0273 C.ar    1  UNL1        0.0229
     18 C          66.2284   95.5843   12.3633 C.ar    1  UNL1        0.0598
     19 CL         66.8893   96.3305   13.4842 Cl      1  UNL1       -0.0822
     20 C          65.7469   94.1800   12.5782 C.ar    1  UNL1        0.0268
     21 C          63.4355   86.2256   13.8190 C.ar    1  UNL1        0.1318
     22 C          63.5009   85.6114   15.1859 C.ar    1  UNL1        0.0344
     23 C          63.0193   84.2071   15.4008 C.ar    1  UNL1        0.0055
     24 C          62.4724   83.4171   14.2489 C.ar    1  UNL1        0.0332
     25 C          62.4070   84.0313   12.8821 C.ar    1  UNL1        0.1014
     26 N          62.8886   85.4356   12.6671 N.ar    1  UNL1       -0.2291
     27 C          61.9909   82.0128   14.4640 C.2     1  UNL1        0.0744
     28 O          62.9796   80.8915   14.5864 O.co2   1  UNL1       -0.5445
     29 O          60.5207   81.7300   14.5566 O.co2   1  UNL1       -0.5445
     30 C          65.9118   90.8420   14.4805 C.ar    1  UNL1       -0.0187
     31 C          67.2916   91.0738   13.9397 C.ar    1  UNL1       -0.0035
     32 C          68.1481   92.1640   14.5121 C.ar    1  UNL1        0.0100
     33 C          67.6249   93.0224   15.6255 C.ar    1  UNL1        0.0684
     34 C          66.2452   92.7906   16.1663 C.ar    1  UNL1        0.0100
     35 C          65.3886   91.7004   15.5937 C.ar    1  UNL1       -0.0035
     36 C          68.4815   94.1126   16.1979 C.1     1  UNL1        0.1004
     37 N          69.3381   95.2029   16.7704 N.1     1  UNL1       -0.1908
@<TRIPOS>UNITY_ATOM_ATTR
28 1
charge -1
@<TRIPOS>BOND
     1     1     2    1
     2     2     3   am
     3     3     4    2
     4     3     5   am
     5     5    13    1
     6    13    14   ar
     7    14    15   ar
     8    15    16    1
     9    15    17   ar
    10    17    18   ar
    11    18    19    1
    12    18    20   ar
    13     5     6   am
    14     6     7    2
    15     6     8    1
    16     8     9    1
    17     9    10    1
    18    10    21    1
    19    21    22   ar
    20    22    23   ar
    21    23    24   ar
    22    24    27    1
    23    27    28   ar
    24    27    29   ar
    25    24    25   ar
    26    25    26   ar
    27    10    11    1
    28    11    12    1
    29    12    30    1
    30    30    31   ar
    31    31    32   ar
    32    32    33   ar
    33    33    36    1
    34    36    37    3
    35    33    34   ar
    36    34    35   ar
    37     8     2    1
    38    26    21   ar
    39    35    30   ar
    40    20    13   ar
    41    12     8    1
