@<TRIPOS>MOLECULE
*****
 34 39 0 0 0
SMALL
GASTEIGER

@<TRIPOS>ATOM
      1 C          43.6382   78.7571   12.0234 C.ar    1  UNL1        0.1028
      2 C          43.6357   80.2487   11.8657 C.ar    1  UNL1        0.0131
      3 C          43.6350   81.1312   13.0786 C.ar    1  UNL1       -0.0015
      4 C          43.6364   80.8366   14.5891 C.ar    1  UNL1        0.0035
      5 C          43.6379   79.6110   13.7242 C.ar    1  UNL1        0.0358
      6 C          43.6400   78.1478   13.3941 C.ar    1  UNL1        0.1545
      7 O          43.6426   76.6697   13.6491 O.3     1  UNL1       -0.4528
      8 C          43.6451   75.4015   14.4504 C.ar    1  UNL1        0.1454
      9 C          43.6477   73.6950   14.1822 C.ar    1  UNL1        0.0375
     10 C          43.6501   72.5430   15.1428 C.ar    1  UNL1        0.0032
     11 C          43.6506   72.7990   16.6208 C.ar    1  UNL1        0.0014
     12 C          43.6530   71.6464   17.5807 C.ar    1  UNL1        0.0001
     13 C          43.6535   71.9014   19.0589 C.ar    1  UNL1        0.0013
     14 C          43.6516   73.3089   19.5772 C.ar    1  UNL1        0.0149
     15 C          43.6491   74.4616   18.6173 C.ar    1  UNL1        0.0539
     16 C          43.6486   74.2065   17.1391 C.ar    1  UNL1        0.0167
     17 C          43.6472   74.5367   15.6759 C.ar    1  UNL1        0.0387
     18 N          43.6486   75.2628   19.8854 N.am    1  UNL1       -0.2575
     19 C          43.6498   75.1070   21.3773 C.3     1  UNL1        0.1001
     20 C          43.6479   76.4777   21.9865 C.3     1  UNL1        0.0470
     21 C          43.6450   77.9516   21.0804 C.3     1  UNL1        0.1340
     22 N          43.6424   79.4298   20.8254 N.3     1  UNL1       -0.2863
     23 C          43.6399   80.6978   20.0241 C.3     1  UNL1        0.1151
     24 C          43.6378   81.5628   18.7986 C.ar    1  UNL1        0.0739
     25 C          43.6362   82.8524   19.5647 C.ar    1  UNL1        0.1147
     26 N          43.6337   83.9794   18.5749 N.ar    1  UNL1       -0.2226
     27 C          43.6339   83.3864   17.1971 C.ar    1  UNL1        0.1786
     28 N          43.6364   81.8928   17.3353 N.ar    1  UNL1       -0.3070
     29 C          43.6359   81.6378   15.8571 C.3     1  UNL1        0.1341
     30 C          43.6472   76.4883   20.7503 C.2     1  UNL1        0.2437
     31 O          43.6483   75.9980   21.3788 O.2     1  UNL1       -0.2731
     32 H          44.4753   79.6425   21.3745 H       1  UNL1        0.1240
     33 N          43.6396   76.9921    9.5976 N.1     1  UNL1       -0.1907
     34 C          43.6389   77.8745   10.8105 C.1     1  UNL1        0.1035
@<TRIPOS>BOND
     1    33    34    3
     2    34     1    1
     3     1     2   ar
     4     2     3   ar
     5     3     4   ar
     6     4     5   ar
     7     5     6   ar
     8     6     7    1
     9     7     8    1
    10     8     9   ar
    11     9    10   ar
    12    10    11   ar
    13    11    12   ar
    14    12    13   ar
    15    13    14   ar
    16    14    15   ar
    17    15    16   ar
    18    16    17   ar
    19    15    18    1
    20    18    19    1
    21    19    20    1
    22    21    20    1
    23    21    22    1
    24    22    23    1
    25    23    24    1
    26    24    25   ar
    27    25    26   ar
    28    26    27   ar
    29    27    28   ar
    30    28    29    1
    31    21    30    1
    32    30    31    2
    33     6     1   ar
    34    17     8   ar
    35    30    18   am
    36    29     4    1
    37    16    11   ar
    38    28    24   ar
    39    22    32    1
@<TRIPOS>MOLECULE
*****
 34 39 0 0 0
SMALL
GASTEIGER

@<TRIPOS>ATOM
      1 C          43.6460   78.6110   13.2640 C.ar    1  UNL1        0.1028
      2 C          43.6472   80.0845   13.5439 C.ar    1  UNL1        0.0131
      3 C          43.6473   80.5791   14.9600 C.ar    1  UNL1       -0.0015
      4 C          43.6463   79.8607   16.3210 C.ar    1  UNL1        0.0035
      5 C          43.6459   78.9372   15.1390 C.ar    1  UNL1        0.0358
      6 C          43.6449   77.6317   14.4003 C.ar    1  UNL1        0.1545
      7 O          43.6438   76.1430   14.2175 O.3     1  UNL1       -0.4528
      8 C          43.6425   74.6974   14.6183 C.ar    1  UNL1        0.1454
      9 C          43.6413   73.1411   13.8686 C.ar    1  UNL1        0.0375
     10 C          43.6401   71.7607   14.4555 C.ar    1  UNL1        0.0032
     11 C          43.6395   71.5789   15.9445 C.ar    1  UNL1        0.0014
     12 C          43.6383   70.1981   16.5305 C.ar    1  UNL1        0.0001
     13 C          43.6377   70.0152   18.0194 C.ar    1  UNL1        0.0013
     14 C          43.6385   71.2131   18.9221 C.ar    1  UNL1        0.0149
     15 C          43.6398   72.5939   18.3361 C.ar    1  UNL1        0.0539
     16 C          43.6403   72.7767   16.8473 C.ar    1  UNL1        0.0167
     17 C          43.6413   73.5155   15.5417 C.ar    1  UNL1        0.0387
     18 N          43.6398   72.9947   19.7816 N.am    1  UNL1       -0.2575
     19 C          43.6390   72.4146   21.1649 C.3     1  UNL1        0.1001
     20 C          43.6397   73.5509   22.1440 C.3     1  UNL1        0.0470
     21 C          43.6412   75.2237   21.7023 C.3     1  UNL1        0.1340
     22 N          43.6424   76.7125   21.8851 N.3     1  UNL1       -0.2863
     23 C          43.6437   78.1580   21.4843 C.3     1  UNL1        0.1151
     24 C          43.6449   79.3400   20.5608 C.ar    1  UNL1        0.0739
     25 C          43.6454   80.3534   21.6668 C.ar    1  UNL1        0.1147
     26 N          43.6467   81.7183   21.0448 N.ar    1  UNL1       -0.2226
     27 C          43.6469   81.5486   19.5544 C.ar    1  UNL1        0.1786
     28 N          43.6458   80.0787   19.2553 N.ar    1  UNL1       -0.3070
     29 C          43.6463   80.2615   17.7665 C.3     1  UNL1        0.1341
     30 C          43.6403   73.9182   20.9636 C.2     1  UNL1        0.2437
     31 O          43.6396   73.2672   21.4236 O.2     1  UNL1       -0.2731
     32 H          44.4751   76.7555   22.4726 H       1  UNL1        0.1240
     33 N          43.6459   77.6218   10.4318 N.1     1  UNL1       -0.1907
     34 C          43.6460   78.1164   11.8479 C.1     1  UNL1        0.1035
@<TRIPOS>BOND
     1    33    34    3
     2    34     1    1
     3     1     2   ar
     4     2     3   ar
     5     3     4   ar
     6     4     5   ar
     7     5     6   ar
     8     6     7    1
     9     7     8    1
    10     8     9   ar
    11     9    10   ar
    12    10    11   ar
    13    11    12   ar
    14    12    13   ar
    15    13    14   ar
    16    14    15   ar
    17    15    16   ar
    18    16    17   ar
    19    15    18    1
    20    18    19    1
    21    19    20    1
    22    21    20    1
    23    21    22    1
    24    22    23    1
    25    23    24    1
    26    24    25   ar
    27    25    26   ar
    28    26    27   ar
    29    27    28   ar
    30    28    29    1
    31    21    30    1
    32    30    31    2
    33     6     1   ar
    34    17     8   ar
    35    30    18   am
    36    29     4    1
    37    16    11   ar
    38    28    24   ar
    39    22    32    1
@<TRIPOS>MOLECULE
*****
 34 39 0 0 0
SMALL
GASTEIGER

@<TRIPOS>ATOM
      1 C          45.3412   73.6633   15.9462 C.ar    1  UNL1        0.1028
      2 C          45.5395   73.2789   17.3824 C.ar    1  UNL1        0.0131
      3 C          45.4920   74.3282   18.4532 C.ar    1  UNL1       -0.0015
      4 C          45.2662   75.8501   18.4199 C.ar    1  UNL1        0.0035
      5 C          45.2287   75.1940   17.0716 C.ar    1  UNL1        0.0358
      6 C          45.0953   75.0972   15.5807 C.ar    1  UNL1        0.1545
      7 O          44.8863   75.5746   14.1742 O.3     1  UNL1       -0.4528
      8 C          44.6334   76.5536   13.0661 C.ar    1  UNL1        0.1454
      9 C          44.4631   76.5550   11.3470 C.ar    1  UNL1        0.0375
     10 C          44.2040   77.6718   10.3798 C.ar    1  UNL1        0.0032
     11 C          44.0481   79.0770   10.8811 C.ar    1  UNL1        0.0014
     12 C          43.7891   80.1932    9.9131 C.ar    1  UNL1        0.0001
     13 C          43.6330   81.5987   10.4134 C.ar    1  UNL1        0.0013
     14 C          43.7360   81.8880   11.8816 C.ar    1  UNL1        0.0149
     15 C          43.9951   80.7718   12.8495 C.ar    1  UNL1        0.0539
     16 C          44.1511   79.3663   12.3492 C.ar    1  UNL1        0.0167
     17 C          44.3753   77.8850   12.4253 C.ar    1  UNL1        0.0387
     18 N          43.9309   81.8875   13.8500 N.am    1  UNL1       -0.2575
     19 C          43.7240   83.3698   13.9497 C.3     1  UNL1        0.1001
     20 C          43.8111   83.7537   15.3971 C.3     1  UNL1        0.0470
     21 C          44.1018   82.6405   16.6893 C.3     1  UNL1        0.1340
     22 N          44.3108   82.1630   18.0958 N.3     1  UNL1       -0.2863
     23 C          44.5636   81.1840   19.2038 C.3     1  UNL1        0.1151
     24 C          44.8218   79.8526   19.8447 C.ar    1  UNL1        0.0739
     25 C          44.8794   80.4024   21.2391 C.ar    1  UNL1        0.1147
     26 N          45.1391   79.2609   22.1769 N.ar    1  UNL1       -0.2226
     27 C          45.2421   78.0057   21.3621 C.ar    1  UNL1        0.1786
     28 N          45.0459   78.3714   19.9207 N.ar    1  UNL1       -0.3070
     29 C          45.2020   76.9659   19.4204 C.3     1  UNL1        0.1341
     30 C          43.9684   82.5438   15.1983 C.2     1  UNL1        0.2437
     31 O          43.8304   83.2338   14.8238 O.2     1  UNL1       -0.2731
     32 H          43.4466   82.5477   18.4773 H       1  UNL1        0.1240
     33 N          45.4361   71.5646   13.8046 N.1     1  UNL1       -0.1907
     34 C          45.3886   72.6140   14.8754 C.1     1  UNL1        0.1035
@<TRIPOS>BOND
     1    33    34    3
     2    34     1    1
     3     1     2   ar
     4     2     3   ar
     5     3     4   ar
     6     4     5   ar
     7     5     6   ar
     8     6     7    1
     9     7     8    1
    10     8     9   ar
    11     9    10   ar
    12    10    11   ar
    13    11    12   ar
    14    12    13   ar
    15    13    14   ar
    16    14    15   ar
    17    15    16   ar
    18    16    17   ar
    19    15    18    1
    20    18    19    1
    21    19    20    1
    22    21    20    1
    23    21    22    1
    24    22    23    1
    25    23    24    1
    26    24    25   ar
    27    25    26   ar
    28    26    27   ar
    29    27    28   ar
    30    28    29    1
    31    21    30    1
    32    30    31    2
    33     6     1   ar
    34    17     8   ar
    35    30    18   am
    36    29     4    1
    37    16    11   ar
    38    28    24   ar
    39    22    32    1
@<TRIPOS>MOLECULE
*****
 34 39 0 0 0
SMALL
GASTEIGER

@<TRIPOS>ATOM
      1 C          44.7730   72.8019   16.2162 C.ar    1  UNL1        0.1028
      2 C          44.7106   72.4221   14.7665 C.ar    1  UNL1        0.0131
      3 C          44.5151   73.4804   13.7216 C.ar    1  UNL1       -0.0015
      4 C          44.3477   75.0084   13.7960 C.ar    1  UNL1        0.0035
      5 C          44.5197   74.3437   15.1296 C.ar    1  UNL1        0.0358
      6 C          44.6398   74.2400   16.6212 C.ar    1  UNL1        0.1545
      7 O          44.6896   74.7133   18.0436 O.3     1  UNL1       -0.4528
      8 C          44.6615   75.6915   19.1805 C.ar    1  UNL1        0.1454
      9 C          44.7874   75.6854   20.9034 C.ar    1  UNL1        0.0375
     10 C          44.7336   76.8026   21.9029 C.ar    1  UNL1        0.0032
     11 C          44.5401   78.2157   21.4384 C.ar    1  UNL1        0.0014
     12 C          44.4864   79.3323   22.4386 C.ar    1  UNL1        0.0001
     13 C          44.2929   80.7457   21.9751 C.ar    1  UNL1        0.0013
     14 C          44.1530   81.0426   20.5115 C.ar    1  UNL1        0.0149
     15 C          44.2067   79.9260   19.5113 C.ar    1  UNL1        0.0539
     16 C          44.4002   78.5126   19.9748 C.ar    1  UNL1        0.0167
     17 C          44.5599   77.0256   19.8586 C.ar    1  UNL1        0.0387
     18 N          44.0088   81.0507   18.5387 N.am    1  UNL1       -0.2575
     19 C          43.8361   82.5395   18.4787 C.3     1  UNL1        0.1001
     20 C          43.6872   82.9312   17.0384 C.3     1  UNL1        0.0470
     21 C          43.7167   81.8190   15.7135 C.3     1  UNL1        0.1340
     22 N          43.6669   81.3457   14.2910 N.3     1  UNL1       -0.2863
     23 C          43.6950   80.3676   13.1541 C.3     1  UNL1        0.1151
     24 C          43.7966   79.0335   12.4760 C.ar    1  UNL1        0.0739
     25 C          43.6330   79.5915   11.0933 C.ar    1  UNL1        0.1147
     26 N          43.6917   78.4494   10.1226 N.ar    1  UNL1       -0.2226
     27 C          43.8915   77.1856   10.9054 C.ar    1  UNL1        0.1786
     28 N          43.9563   77.5465   12.3599 N.ar    1  UNL1       -0.3070
     29 C          44.1498   76.1331   12.8234 C.3     1  UNL1        0.1341
     30 C          43.8368   81.7155   17.2051 C.2     1  UNL1        0.2437
     31 O          43.7872   82.4067   17.5990 O.2     1  UNL1       -0.2731
     32 H          44.4140   81.9471   13.9436 H       1  UNL1        0.1240
     33 N          45.1642   70.6853   18.3059 N.1     1  UNL1       -0.1907
     34 C          44.9686   71.7436   17.2611 C.1     1  UNL1        0.1035
@<TRIPOS>BOND
     1    33    34    3
     2    34     1    1
     3     1     2   ar
     4     2     3   ar
     5     3     4   ar
     6     4     5   ar
     7     5     6   ar
     8     6     7    1
     9     7     8    1
    10     8     9   ar
    11     9    10   ar
    12    10    11   ar
    13    11    12   ar
    14    12    13   ar
    15    13    14   ar
    16    14    15   ar
    17    15    16   ar
    18    16    17   ar
    19    15    18    1
    20    18    19    1
    21    19    20    1
    22    21    20    1
    23    21    22    1
    24    22    23    1
    25    23    24    1
    26    24    25   ar
    27    25    26   ar
    28    26    27   ar
    29    27    28   ar
    30    28    29    1
    31    21    30    1
    32    30    31    2
    33     6     1   ar
    34    17     8   ar
    35    30    18   am
    36    29     4    1
    37    16    11   ar
    38    28    24   ar
    39    22    32    1
