@<TRIPOS>MOLECULE
*****
 30 32 0 0 0
SMALL
GASTEIGER

@<TRIPOS>ATOM
      1 C          62.6973   90.0196   12.3177 C.2     1  UNL1        0.2430
      2 O          63.3788   88.6996   12.1094 O.2     1  UNL1       -0.2732
      3 N          63.0358   90.8577   13.5149 N.am    1  UNL1       -0.2972
      4 H          62.5886   91.7241   13.6516 H       1  UNL1        0.1500
      5 C          61.6774   90.5014   11.3290 C.3     1  UNL1        0.1757
      6 O          59.7821   88.2582   11.9421 O.2     1  UNL1       -0.2747
      7 C          60.2624   88.4714   10.5372 C.2     1  UNL1        0.2272
      8 N          61.2101   89.5930   10.2307 N.am    1  UNL1       -0.2964
      9 H          61.5254   89.7330    9.3086 H       1  UNL1        0.1499
     10 C          59.7951   87.5630    9.4389 C.3     1  UNL1        0.1113
     11 C          60.7680   86.6452    8.7597 C.ar    1  UNL1       -0.0131
     12 C          62.1405   86.4504    9.3326 C.ar    1  UNL1       -0.0038
     13 C          63.1133   85.5326    8.6534 C.ar    1  UNL1       -0.0003
     14 C          62.7136   84.8097    7.4014 C.ar    1  UNL1       -0.0000
     15 C          61.3411   85.0045    6.8285 C.ar    1  UNL1       -0.0003
     16 C          60.3683   85.9222    7.5077 C.ar    1  UNL1       -0.0038
     17 C          64.0558   90.3759   14.5036 C.3     1  UNL1        0.1169
     18 C          65.2851   91.1926   14.7712 C.ar    1  UNL1       -0.0003
     19 C          65.3894   92.0003   16.0308 C.ar    1  UNL1       -0.0015
     20 C          66.6188   92.8170   16.2984 C.ar    1  UNL1        0.0111
     21 C          67.7439   92.8260   15.3065 C.ar    1  UNL1        0.0577
     22 CL         68.9733   93.6427   15.5741 Cl      1  UNL1       -0.0822
     23 C          67.6396   92.0183   14.0469 C.ar    1  UNL1        0.0111
     24 C          66.4102   91.2016   13.7792 C.ar    1  UNL1       -0.0015
     25 C          63.8463   89.0774   15.2246 C.ar    1  UNL1       -0.0003
     26 C          63.0899   89.0522   16.5197 C.ar    1  UNL1       -0.0024
     27 C          62.8805   87.7536   17.2408 C.ar    1  UNL1       -0.0003
     28 C          63.4274   86.4803   16.6667 C.ar    1  UNL1       -0.0000
     29 C          64.1838   86.5055   15.3716 C.ar    1  UNL1       -0.0003
     30 C          64.3932   87.8040   14.6506 C.ar    1  UNL1       -0.0024
@<TRIPOS>BOND
     1     6     7    2
     2     7    10    1
     3    10    11    1
     4    11    12   ar
     5    12    13   ar
     6    13    14   ar
     7    14    15   ar
     8    15    16   ar
     9     7     8   am
    10     8     5    1
    11     5     1    1
    12     1     2    2
    13     1     3   am
    14     3    17    1
    15    17    25    1
    16    25    26   ar
    17    26    27   ar
    18    27    28   ar
    19    28    29   ar
    20    29    30   ar
    21    17    18    1
    22    18    19   ar
    23    19    20   ar
    24    20    21   ar
    25    21    22    1
    26    21    23   ar
    27    23    24   ar
    28    16    11   ar
    29    30    25   ar
    30    24    18   ar
    31     8     9    1
    32     3     4    1
@<TRIPOS>MOLECULE
*****
 30 32 0 0 0
SMALL
GASTEIGER

@<TRIPOS>ATOM
      1 C          62.7500   90.2079   12.1088 C.2     1  UNL1        0.2430
      2 O          63.3708   88.8488   11.9768 O.2     1  UNL1       -0.2732
      3 N          63.1362   91.1012   13.2503 N.am    1  UNL1       -0.2972
      4 H          62.7287   91.9933   13.3370 H       1  UNL1        0.1500
      5 C          61.7429   90.6737   11.0995 C.3     1  UNL1        0.1757
      6 O          59.9404   88.4038   11.8732 O.2     1  UNL1       -0.2747
      7 C          60.3365   88.5915   10.4387 C.2     1  UNL1        0.2272
      8 N          61.2378   89.7265   10.0518 N.am    1  UNL1       -0.2964
      9 H          61.4978   89.8497    9.1103 H       1  UNL1        0.1499
     10 C          59.8314   87.6443    9.3911 C.3     1  UNL1        0.1113
     11 C          60.7782   86.6937    8.7201 C.ar    1  UNL1       -0.0131
     12 C          60.3526   85.9590    7.4837 C.ar    1  UNL1       -0.0038
     13 C          61.2994   85.0085    6.8128 C.ar    1  UNL1       -0.0003
     14 C          62.6718   84.7927    7.3784 C.ar    1  UNL1       -0.0000
     15 C          63.0974   85.5275    8.6149 C.ar    1  UNL1       -0.0003
     16 C          62.1506   86.4780    9.2858 C.ar    1  UNL1       -0.0038
     17 C          64.1432   90.6354   14.2597 C.3     1  UNL1        0.1169
     18 C          63.8864   89.3905   15.0559 C.ar    1  UNL1       -0.0003
     19 C          64.4003   88.0686   14.5677 C.ar    1  UNL1       -0.0015
     20 C          64.1435   86.8236   15.3640 C.ar    1  UNL1        0.0111
     21 C          63.3728   86.9005   16.6485 C.ar    1  UNL1        0.0577
     22 CL         63.1159   85.6555   17.4448 Cl      1  UNL1       -0.0822
     23 C          62.8588   88.2224   17.1367 C.ar    1  UNL1        0.0111
     24 C          63.1157   89.4674   16.3404 C.ar    1  UNL1       -0.0015
     25 C          65.4071   91.4146   14.4727 C.ar    1  UNL1       -0.0003
     26 C          66.3976   91.5573   13.3554 C.ar    1  UNL1       -0.0024
     27 C          67.6616   92.3366   13.5685 C.ar    1  UNL1       -0.0003
     28 C          67.9349   92.9730   14.8989 C.ar    1  UNL1       -0.0000
     29 C          66.9444   92.8303   16.0163 C.ar    1  UNL1       -0.0003
     30 C          65.6805   92.0512   15.8032 C.ar    1  UNL1       -0.0024
@<TRIPOS>BOND
     1     6     7    2
     2     7    10    1
     3    10    11    1
     4    11    12   ar
     5    12    13   ar
     6    13    14   ar
     7    14    15   ar
     8    15    16   ar
     9     7     8   am
    10     8     5    1
    11     5     1    1
    12     1     2    2
    13     1     3   am
    14     3    17    1
    15    17    25    1
    16    25    26   ar
    17    26    27   ar
    18    27    28   ar
    19    28    29   ar
    20    29    30   ar
    21    17    18    1
    22    18    19   ar
    23    19    20   ar
    24    20    21   ar
    25    21    22    1
    26    21    23   ar
    27    23    24   ar
    28    16    11   ar
    29    30    25   ar
    30    24    18   ar
    31     8     9    1
    32     3     4    1
@<TRIPOS>MOLECULE
*****
 30 32 0 0 0
SMALL
GASTEIGER

@<TRIPOS>ATOM
      1 C          63.3862   88.5761   15.9243 C.2     1  UNL1        0.2430
      2 O          62.4533   89.7405   16.0784 O.2     1  UNL1       -0.2732
      3 N          64.5187   88.6472   14.9433 N.am    1  UNL1       -0.2972
      4 H          65.1310   87.8829   14.8421 H       1  UNL1        0.1500
      5 C          63.1865   87.3406   16.7510 C.3     1  UNL1        0.1757
      6 O          65.2138   85.9297   15.0482 O.2     1  UNL1       -0.2747
      7 C          63.8487   85.3369   15.2353 C.2     1  UNL1        0.2272
      8 N          62.8350   86.0424   16.0868 N.am    1  UNL1       -0.2964
      9 H          61.9390   85.6534   16.2097 H       1  UNL1        0.1499
     10 C          63.4971   84.0388   14.5711 C.3     1  UNL1        0.1113
     11 C          63.5206   83.9313   13.0751 C.ar    1  UNL1       -0.0131
     12 C          62.7764   84.9303   12.2396 C.ar    1  UNL1       -0.0038
     13 C          62.7998   84.8227   10.7437 C.ar    1  UNL1       -0.0003
     14 C          63.5674   83.7161   10.0833 C.ar    1  UNL1       -0.0000
     15 C          64.3116   82.7171   10.9188 C.ar    1  UNL1       -0.0003
     16 C          64.2882   82.8247   12.4147 C.ar    1  UNL1       -0.0038
     17 C          64.7184   89.8827   14.1165 C.3     1  UNL1        0.1169
     18 C          65.6566   90.9552   14.5850 C.ar    1  UNL1       -0.0003
     19 C          66.9773   91.1478   13.9006 C.ar    1  UNL1       -0.0015
     20 C          67.9155   92.2203   14.3692 C.ar    1  UNL1        0.0111
     21 C          67.5330   93.1002   15.5221 C.ar    1  UNL1        0.0577
     22 CL         68.4712   94.1727   15.9907 Cl      1  UNL1       -0.0822
     23 C          66.2123   92.9076   16.2066 C.ar    1  UNL1        0.0111
     24 C          65.2741   91.8351   15.7380 C.ar    1  UNL1       -0.0015
     25 C          63.9798   90.0457   12.8212 C.ar    1  UNL1       -0.0003
     26 C          64.0753   91.3350   12.0605 C.ar    1  UNL1       -0.0024
     27 C          63.3367   91.4980   10.7651 C.ar    1  UNL1       -0.0003
     28 C          62.5026   90.3718   10.2305 C.ar    1  UNL1       -0.0000
     29 C          62.4071   89.0825   10.9912 C.ar    1  UNL1       -0.0003
     30 C          63.1457   88.9195   12.2865 C.ar    1  UNL1       -0.0024
@<TRIPOS>BOND
     1     6     7    2
     2     7    10    1
     3    10    11    1
     4    11    12   ar
     5    12    13   ar
     6    13    14   ar
     7    14    15   ar
     8    15    16   ar
     9     7     8   am
    10     8     5    1
    11     5     1    1
    12     1     2    2
    13     1     3   am
    14     3    17    1
    15    17    25    1
    16    25    26   ar
    17    26    27   ar
    18    27    28   ar
    19    28    29   ar
    20    29    30   ar
    21    17    18    1
    22    18    19   ar
    23    19    20   ar
    24    20    21   ar
    25    21    22    1
    26    21    23   ar
    27    23    24   ar
    28    16    11   ar
    29    30    25   ar
    30    24    18   ar
    31     8     9    1
    32     3     4    1
@<TRIPOS>MOLECULE
*****
 30 32 0 0 0
SMALL
GASTEIGER

@<TRIPOS>ATOM
      1 C          63.1464   88.6326   15.8896 C.2     1  UNL1        0.2430
      2 O          62.0640   89.6707   15.9188 O.2     1  UNL1       -0.2732
      3 N          64.1681   88.6451   14.7914 N.am    1  UNL1       -0.2972
      4 H          64.8785   87.9638   14.7722 H       1  UNL1        0.1500
      5 C          63.2071   87.5821   16.9586 C.3     1  UNL1        0.1757
      6 O          64.6853   85.6257   15.2301 O.2     1  UNL1       -0.2747
      7 C          63.3702   85.2422   15.8413 C.2     1  UNL1        0.2272
      8 N          62.6311   86.2205   16.7055 N.am    1  UNL1       -0.2964
      9 H          61.7680   85.9688   17.1066 H       1  UNL1        0.1499
     10 C          62.7943   83.8806   15.5882 C.3     1  UNL1        0.1113
     11 C          62.7974   83.3110   14.2005 C.ar    1  UNL1       -0.0131
     12 C          62.7583   81.8250   13.9996 C.ar    1  UNL1       -0.0038
     13 C          62.7614   81.2555   12.6120 C.ar    1  UNL1       -0.0003
     14 C          62.8037   82.1719   11.4252 C.ar    1  UNL1       -0.0000
     15 C          62.8428   83.6578   11.6261 C.ar    1  UNL1       -0.0003
     16 C          62.8397   84.2274   13.0137 C.ar    1  UNL1       -0.0038
     17 C          64.1075   89.6956   13.7224 C.3     1  UNL1        0.1169
     18 C          63.2349   89.4919   12.5194 C.ar    1  UNL1       -0.0003
     19 C          62.6205   90.6738   11.8298 C.ar    1  UNL1       -0.0015
     20 C          61.7480   90.4702   10.6268 C.ar    1  UNL1        0.0111
     21 C          61.4899   89.0846   10.1134 C.ar    1  UNL1        0.0577
     22 CL         60.6173   88.8810    8.9104 Cl      1  UNL1       -0.0822
     23 C          62.1043   87.9027   10.8030 C.ar    1  UNL1        0.0111
     24 C          62.9768   88.1064   12.0060 C.ar    1  UNL1       -0.0015
     25 C          64.9193   90.9497   13.8565 C.ar    1  UNL1       -0.0003
     26 C          65.3105   91.7242   12.6329 C.ar    1  UNL1       -0.0024
     27 C          66.1224   92.9784   12.7670 C.ar    1  UNL1       -0.0003
     28 C          66.5430   93.4580   14.1246 C.ar    1  UNL1       -0.0000
     29 C          66.1518   92.6835   15.3481 C.ar    1  UNL1       -0.0003
     30 C          65.3400   91.4294   15.2141 C.ar    1  UNL1       -0.0024
@<TRIPOS>BOND
     1     6     7    2
     2     7    10    1
     3    10    11    1
     4    11    12   ar
     5    12    13   ar
     6    13    14   ar
     7    14    15   ar
     8    15    16   ar
     9     7     8   am
    10     8     5    1
    11     5     1    1
    12     1     2    2
    13     1     3   am
    14     3    17    1
    15    17    25    1
    16    25    26   ar
    17    26    27   ar
    18    27    28   ar
    19    28    29   ar
    20    29    30   ar
    21    17    18    1
    22    18    19   ar
    23    19    20   ar
    24    20    21   ar
    25    21    22    1
    26    21    23   ar
    27    23    24   ar
    28    16    11   ar
    29    30    25   ar
    30    24    18   ar
    31     8     9    1
    32     3     4    1
@<TRIPOS>MOLECULE
*****
 30 32 0 0 0
SMALL
GASTEIGER

@<TRIPOS>ATOM
      1 C          62.4273   89.8130   11.9236 C.2     1  UNL1        0.2430
      2 O          61.4366   89.9489   13.0417 O.2     1  UNL1       -0.2732
      3 N          63.8961   89.9317   12.2044 N.am    1  UNL1       -0.2972
      4 H          64.5463   89.8426   11.4706 H       1  UNL1        0.1500
      5 C          61.9493   89.5585   10.5248 C.3     1  UNL1        0.1757
      6 O          60.7054   87.0206   11.5306 O.2     1  UNL1       -0.2747
      7 C          61.6366   86.9849   10.3552 C.2     1  UNL1        0.2272
      8 N          62.2585   88.2539    9.8523 N.am    1  UNL1       -0.2964
      9 H          62.8697   88.2305    9.0809 H       1  UNL1        0.1499
     10 C          61.9458   85.6803    9.6827 C.3     1  UNL1        0.1113
     11 C          62.7714   84.6480   10.3920 C.ar    1  UNL1       -0.0131
     12 C          62.7168   84.5418   11.8872 C.ar    1  UNL1       -0.0038
     13 C          63.5424   83.5096   12.5963 C.ar    1  UNL1       -0.0003
     14 C          64.4226   82.5837   11.8103 C.ar    1  UNL1       -0.0000
     15 C          64.4772   82.6899   10.3151 C.ar    1  UNL1       -0.0003
     16 C          63.6516   83.7221    9.6059 C.ar    1  UNL1       -0.0038
     17 C          64.3741   90.1862   13.6032 C.3     1  UNL1        0.1169
     18 C          63.9959   89.2447   14.7080 C.ar    1  UNL1       -0.0003
     19 C          63.2925   89.7630   15.9272 C.ar    1  UNL1       -0.0015
     20 C          62.9144   88.8215   17.0320 C.ar    1  UNL1        0.0111
     21 C          63.2396   87.3617   16.9176 C.ar    1  UNL1        0.0577
     22 CL         62.8615   86.4202   18.0224 Cl      1  UNL1       -0.0822
     23 C          63.9430   86.8434   15.6983 C.ar    1  UNL1        0.0111
     24 C          64.3212   87.7849   14.5935 C.ar    1  UNL1       -0.0015
     25 C          65.2302   91.3823   13.8972 C.ar    1  UNL1       -0.0003
     26 C          65.8182   91.5658   15.2649 C.ar    1  UNL1       -0.0024
     27 C          66.6744   92.7619   15.5588 C.ar    1  UNL1       -0.0003
     28 C          66.9426   93.7744   14.4851 C.ar    1  UNL1       -0.0000
     29 C          66.3546   93.5908   13.1174 C.ar    1  UNL1       -0.0003
     30 C          65.4985   92.3948   12.8234 C.ar    1  UNL1       -0.0024
@<TRIPOS>BOND
     1     6     7    2
     2     7    10    1
     3    10    11    1
     4    11    12   ar
     5    12    13   ar
     6    13    14   ar
     7    14    15   ar
     8    15    16   ar
     9     7     8   am
    10     8     5    1
    11     5     1    1
    12     1     2    2
    13     1     3   am
    14     3    17    1
    15    17    25    1
    16    25    26   ar
    17    26    27   ar
    18    27    28   ar
    19    28    29   ar
    20    29    30   ar
    21    17    18    1
    22    18    19   ar
    23    19    20   ar
    24    20    21   ar
    25    21    22    1
    26    21    23   ar
    27    23    24   ar
    28    16    11   ar
    29    30    25   ar
    30    24    18   ar
    31     8     9    1
    32     3     4    1
@<TRIPOS>MOLECULE
*****
 30 32 0 0 0
SMALL
GASTEIGER

@<TRIPOS>ATOM
      1 C          61.4098   88.8749   11.5207 C.2     1  UNL1        0.2430
      2 O          60.1372   88.1553   11.8565 O.2     1  UNL1       -0.2732
      3 N          62.5708   88.1176   10.9473 N.am    1  UNL1       -0.2972
      4 H          63.4060   88.5899   10.7269 H       1  UNL1        0.1500
      5 C          61.5215   90.3517   11.7585 C.3     1  UNL1        0.1757
      6 O          63.5103   91.6095    9.8976 O.2     1  UNL1       -0.2747
      7 C          63.7893   91.5587   11.3706 C.2     1  UNL1        0.2272
      8 N          62.7949   90.9298   12.3010 N.am    1  UNL1       -0.2964
      9 H          62.9780   90.8964   13.2677 H       1  UNL1        0.1499
     10 C          65.0626   92.1368   11.9131 C.3     1  UNL1        0.1113
     11 C          65.9807   92.9074   11.0111 C.ar    1  UNL1       -0.0131
     12 C          67.1652   92.2287   10.3896 C.ar    1  UNL1       -0.0038
     13 C          68.0831   92.9992    9.4877 C.ar    1  UNL1       -0.0003
     14 C          67.8165   94.4485    9.2072 C.ar    1  UNL1       -0.0000
     15 C          66.6320   95.1271    9.8286 C.ar    1  UNL1       -0.0003
     16 C          65.7141   94.3566   10.7306 C.ar    1  UNL1       -0.0038
     17 C          62.4591   86.6408   10.7096 C.3     1  UNL1        0.1169
     18 C          62.7850   85.6770   11.8118 C.ar    1  UNL1       -0.0003
     19 C          62.4625   84.2206   11.6542 C.ar    1  UNL1       -0.0015
     20 C          62.7884   83.2567   12.7564 C.ar    1  UNL1        0.0111
     21 C          63.4368   83.7493   14.0161 C.ar    1  UNL1        0.0577
     22 CL         63.7627   82.7854   15.1183 Cl      1  UNL1       -0.0822
     23 C          63.7593   85.2057   14.1736 C.ar    1  UNL1        0.0111
     24 C          63.4334   86.1695   13.0715 C.ar    1  UNL1       -0.0015
     25 C          62.0215   86.1279    9.3697 C.ar    1  UNL1       -0.0003
     26 C          62.9974   85.4079    8.4870 C.ar    1  UNL1       -0.0024
     27 C          62.5597   84.8949    7.1470 C.ar    1  UNL1       -0.0003
     28 C          61.1462   85.1019    6.6899 C.ar    1  UNL1       -0.0000
     29 C          60.1703   85.8219    7.5726 C.ar    1  UNL1       -0.0003
     30 C          60.6079   86.3349    8.9125 C.ar    1  UNL1       -0.0024
@<TRIPOS>BOND
     1     6     7    2
     2     7    10    1
     3    10    11    1
     4    11    12   ar
     5    12    13   ar
     6    13    14   ar
     7    14    15   ar
     8    15    16   ar
     9     7     8   am
    10     8     5    1
    11     5     1    1
    12     1     2    2
    13     1     3   am
    14     3    17    1
    15    17    25    1
    16    25    26   ar
    17    26    27   ar
    18    27    28   ar
    19    28    29   ar
    20    29    30   ar
    21    17    18    1
    22    18    19   ar
    23    19    20   ar
    24    20    21   ar
    25    21    22    1
    26    21    23   ar
    27    23    24   ar
    28    16    11   ar
    29    30    25   ar
    30    24    18   ar
    31     8     9    1
    32     3     4    1
@<TRIPOS>MOLECULE
*****
 30 32 0 0 0
SMALL
GASTEIGER

@<TRIPOS>ATOM
      1 C          64.1953   85.6293   14.0262 C.2     1  UNL1        0.2430
      2 O          65.0385   84.3944   13.9082 O.2     1  UNL1       -0.2732
      3 N          62.9981   85.8074   13.1402 N.am    1  UNL1       -0.2972
      4 H          62.4446   86.6179   13.2176 H       1  UNL1        0.1500
      5 C          64.5492   86.6860   15.0302 C.3     1  UNL1        0.1757
      6 O          62.8390   88.7474   16.3815 O.2     1  UNL1       -0.2747
      7 C          63.7776   89.1538   15.2843 C.2     1  UNL1        0.2272
      8 N          64.6327   88.1231   14.6087 N.am    1  UNL1       -0.2964
      9 H          65.2488   88.3898   13.8886 H       1  UNL1        0.1499
     10 C          63.8612   90.5909   14.8628 C.3     1  UNL1        0.1113
     11 C          63.9077   90.9436   13.4055 C.ar    1  UNL1       -0.0131
     12 C          62.9046   90.3541   12.4588 C.ar    1  UNL1       -0.0038
     13 C          62.9511   90.7068   11.0017 C.ar    1  UNL1       -0.0003
     14 C          64.0008   91.6490   10.4912 C.ar    1  UNL1       -0.0000
     15 C          65.0039   92.2384   11.4379 C.ar    1  UNL1       -0.0003
     16 C          64.9573   91.8857   12.8950 C.ar    1  UNL1       -0.0038
     17 C          62.6441   84.7507   12.1362 C.3     1  UNL1        0.1169
     18 C          62.5652   83.3130   12.5566 C.ar    1  UNL1       -0.0003
     19 C          63.0347   82.2331   11.6276 C.ar    1  UNL1       -0.0015
     20 C          62.9558   80.7954   12.0481 C.ar    1  UNL1        0.0111
     21 C          62.4073   80.4376   13.3976 C.ar    1  UNL1        0.0577
     22 CL         62.3284   79.0000   13.8181 Cl      1  UNL1       -0.0822
     23 C          61.9378   81.5176   14.3266 C.ar    1  UNL1        0.0111
     24 C          62.0167   82.9553   13.9061 C.ar    1  UNL1       -0.0015
     25 C          62.3692   85.1317   10.7117 C.ar    1  UNL1       -0.0003
     26 C          61.1751   85.9762   10.3783 C.ar    1  UNL1       -0.0024
     27 C          60.9002   86.3572    8.9537 C.ar    1  UNL1       -0.0003
     28 C          61.8193   85.8937    7.8626 C.ar    1  UNL1       -0.0000
     29 C          63.0133   85.0493    8.1961 C.ar    1  UNL1       -0.0003
     30 C          63.2883   84.6683    9.6205 C.ar    1  UNL1       -0.0024
@<TRIPOS>BOND
     1     6     7    2
     2     7    10    1
     3    10    11    1
     4    11    12   ar
     5    12    13   ar
     6    13    14   ar
     7    14    15   ar
     8    15    16   ar
     9     7     8   am
    10     8     5    1
    11     5     1    1
    12     1     2    2
    13     1     3   am
    14     3    17    1
    15    17    25    1
    16    25    26   ar
    17    26    27   ar
    18    27    28   ar
    19    28    29   ar
    20    29    30   ar
    21    17    18    1
    22    18    19   ar
    23    19    20   ar
    24    20    21   ar
    25    21    22    1
    26    21    23   ar
    27    23    24   ar
    28    16    11   ar
    29    30    25   ar
    30    24    18   ar
    31     8     9    1
    32     3     4    1
@<TRIPOS>MOLECULE
*****
 30 32 0 0 0
SMALL
GASTEIGER

@<TRIPOS>ATOM
      1 C          61.2107   88.8610   11.4939 C.2     1  UNL1        0.2430
      2 O          59.9790   88.0698   11.8211 O.2     1  UNL1       -0.2732
      3 N          62.4179   88.1710   10.9311 N.am    1  UNL1       -0.2972
      4 H          63.2262   88.6902   10.7163 H       1  UNL1        0.1500
      5 C          61.2352   90.3422   11.7293 C.3     1  UNL1        0.1757
      6 O          63.5198   89.8402   13.6078 O.2     1  UNL1       -0.2747
      7 C          63.6592   90.8544   12.5115 C.2     1  UNL1        0.2272
      8 N          62.5169   91.1054   11.5722 N.am    1  UNL1       -0.2964
      9 H          62.6083   91.7711   10.8527 H       1  UNL1        0.1499
     10 C          64.9409   91.6177   12.3544 C.3     1  UNL1        0.1113
     11 C          65.7958   91.9029   13.5535 C.ar    1  UNL1       -0.0131
     12 C          65.1579   92.1368   14.8908 C.ar    1  UNL1       -0.0038
     13 C          66.0128   92.4220   16.0899 C.ar    1  UNL1       -0.0003
     14 C          67.5056   92.4734   15.9516 C.ar    1  UNL1       -0.0000
     15 C          68.1434   92.2396   14.6143 C.ar    1  UNL1       -0.0003
     16 C          67.2885   91.9543   13.4153 C.ar    1  UNL1       -0.0038
     17 C          62.3933   86.6898   10.6956 C.3     1  UNL1        0.1169
     18 C          62.7698   85.7483   11.8010 C.ar    1  UNL1       -0.0003
     19 C          63.4413   86.2717   13.0359 C.ar    1  UNL1       -0.0015
     20 C          63.8177   85.3302   14.1413 C.ar    1  UNL1        0.0111
     21 C          63.5227   83.8653   14.0118 C.ar    1  UNL1        0.0577
     22 CL         63.8991   82.9238   15.1171 Cl      1  UNL1       -0.0822
     23 C          62.8511   83.3418   12.7769 C.ar    1  UNL1        0.0111
     24 C          62.4747   84.2833   11.6715 C.ar    1  UNL1       -0.0015
     25 C          61.9924   86.1501    9.3548 C.ar    1  UNL1       -0.0003
     26 C          62.9955   85.4246    8.5078 C.ar    1  UNL1       -0.0024
     27 C          62.5945   84.8850    7.1669 C.ar    1  UNL1       -0.0003
     28 C          61.1904   85.0708    6.6730 C.ar    1  UNL1       -0.0000
     29 C          60.1873   85.7963    7.5200 C.ar    1  UNL1       -0.0003
     30 C          60.5882   86.3360    8.8608 C.ar    1  UNL1       -0.0024
@<TRIPOS>BOND
     1     6     7    2
     2     7    10    1
     3    10    11    1
     4    11    12   ar
     5    12    13   ar
     6    13    14   ar
     7    14    15   ar
     8    15    16   ar
     9     7     8   am
    10     8     5    1
    11     5     1    1
    12     1     2    2
    13     1     3   am
    14     3    17    1
    15    17    25    1
    16    25    26   ar
    17    26    27   ar
    18    27    28   ar
    19    28    29   ar
    20    29    30   ar
    21    17    18    1
    22    18    19   ar
    23    19    20   ar
    24    20    21   ar
    25    21    22    1
    26    21    23   ar
    27    23    24   ar
    28    16    11   ar
    29    30    25   ar
    30    24    18   ar
    31     8     9    1
    32     3     4    1
@<TRIPOS>MOLECULE
*****
 30 32 0 0 0
SMALL
GASTEIGER

@<TRIPOS>ATOM
      1 C          63.2661   88.7260   15.1258 C.2     1  UNL1        0.2430
      2 O          62.2689   89.8215   15.3612 O.2     1  UNL1       -0.2732
      3 N          63.8845   88.5533   13.7701 N.am    1  UNL1       -0.2972
      4 H          64.5390   87.8343   13.6156 H       1  UNL1        0.1500
      5 C          63.6451   87.8033   16.2461 C.3     1  UNL1        0.1757
      6 O          65.4368   85.9031   14.7699 O.2     1  UNL1       -0.2747
      7 C          64.1894   85.3970   15.4316 C.2     1  UNL1        0.2272
      8 N          63.2935   86.3472   16.1697 N.am    1  UNL1       -0.2964
      9 H          62.4748   86.0150   16.6040 H       1  UNL1        0.1499
     10 C          63.8379   83.9408   15.3553 C.3     1  UNL1        0.1113
     11 C          63.5212   83.3141   14.0297 C.ar    1  UNL1       -0.0131
     12 C          63.3984   81.8236   13.9150 C.ar    1  UNL1       -0.0038
     13 C          63.0817   81.1970   12.5894 C.ar    1  UNL1       -0.0003
     14 C          62.8879   82.0610   11.3786 C.ar    1  UNL1       -0.0000
     15 C          63.0107   83.5515   11.4934 C.ar    1  UNL1       -0.0003
     16 C          63.3273   84.1781   12.8189 C.ar    1  UNL1       -0.0038
     17 C          63.5055   89.4760   12.6499 C.3     1  UNL1        0.1169
     18 C          64.2550   90.7598   12.4495 C.ar    1  UNL1       -0.0003
     19 C          64.1941   91.4652   11.1271 C.ar    1  UNL1       -0.0015
     20 C          64.9437   92.7490   10.9267 C.ar    1  UNL1        0.0111
     21 C          65.7540   93.3273   12.0487 C.ar    1  UNL1        0.0577
     22 CL         66.5036   94.6111   11.8483 Cl      1  UNL1       -0.0822
     23 C          65.8149   92.6219   13.3710 C.ar    1  UNL1        0.0111
     24 C          65.0654   91.3381   13.5714 C.ar    1  UNL1       -0.0015
     25 C          62.3771   89.1149   11.7300 C.ar    1  UNL1       -0.0003
     26 C          62.4164   87.8253   10.9649 C.ar    1  UNL1       -0.0024
     27 C          61.2879   87.4643   10.0450 C.ar    1  UNL1       -0.0003
     28 C          60.1201   88.3928    9.8903 C.ar    1  UNL1       -0.0000
     29 C          60.0807   89.6824   10.6554 C.ar    1  UNL1       -0.0003
     30 C          61.2091   90.0434   11.5753 C.ar    1  UNL1       -0.0024
@<TRIPOS>BOND
     1     6     7    2
     2     7    10    1
     3    10    11    1
     4    11    12   ar
     5    12    13   ar
     6    13    14   ar
     7    14    15   ar
     8    15    16   ar
     9     7     8   am
    10     8     5    1
    11     5     1    1
    12     1     2    2
    13     1     3   am
    14     3    17    1
    15    17    25    1
    16    25    26   ar
    17    26    27   ar
    18    27    28   ar
    19    28    29   ar
    20    29    30   ar
    21    17    18    1
    22    18    19   ar
    23    19    20   ar
    24    20    21   ar
    25    21    22    1
    26    21    23   ar
    27    23    24   ar
    28    16    11   ar
    29    30    25   ar
    30    24    18   ar
    31     8     9    1
    32     3     4    1
