@<TRIPOS>MOLECULE
*****
 14 14 0 0 0
SMALL
GASTEIGER

@<TRIPOS>ATOM
      1 C          62.6916   81.9988   13.1315 C.ar    1  UNL1       -0.0115
      2 C          62.7869   81.1234   11.9172 C.ar    1  UNL1        0.0170
      3 C          63.6423   81.5399   10.7575 C.ar    1  UNL1        0.0986
      4 N          64.4025   82.8318   10.8122 N.ar    1  UNL1       -0.2417
      5 C          64.3072   83.7072   12.0264 C.ar    1  UNL1        0.1067
      6 C          63.4518   83.2907   13.1861 C.ar    1  UNL1        0.0569
      7 C          60.6149   80.7431   14.0589 C.3     1  UNL1        0.0050
      8 C          61.8362   81.5823   14.2911 C.3     1  UNL1        0.0271
      9 C          63.3566   84.1662   14.4004 C.1     1  UNL1       -0.0618
     10 C          63.2614   85.0417   15.6147 C.1     1  UNL1       -0.0689
     11 C          63.1662   85.9172   16.8290 C.3     1  UNL1        0.1432
     12 N          61.8222   86.2998   17.3743 N.3     1  UNL1       -0.3102
     13 H          61.3371   86.8909   16.6992 H       1  UNL1        0.1198
     14 H          61.9430   86.8108   18.2487 H       1  UNL1        0.1198
@<TRIPOS>BOND
     1     7     8    1
     2     8     1    1
     3     1     2   ar
     4     2     3   ar
     5     3     4   ar
     6     4     5   ar
     7     5     6   ar
     8     6     9    1
     9     9    10    3
    10    10    11    1
    11    11    12    1
    12     6     1   ar
    13    12    13    1
    14    12    14    1
@<TRIPOS>MOLECULE
*****
 14 14 0 0 0
SMALL
GASTEIGER

@<TRIPOS>ATOM
      1 C          67.2292   93.9874    9.9122 C.ar    1  UNL1       -0.0115
      2 C          67.7189   95.0392    8.9616 C.ar    1  UNL1        0.0170
      3 C          67.3296   96.4735    9.1646 C.ar    1  UNL1        0.0986
      4 N          66.4505   96.8560   10.3183 N.ar    1  UNL1       -0.2417
      5 C          65.9608   95.8042   11.2689 C.ar    1  UNL1        0.1067
      6 C          66.3501   94.3699   11.0659 C.ar    1  UNL1        0.0569
      7 C          68.7872   92.2099    8.8339 C.3     1  UNL1        0.0050
      8 C          67.6185   92.5531    9.7092 C.3     1  UNL1        0.0271
      9 C          65.8604   93.3180   12.0166 C.1     1  UNL1       -0.0618
     10 C          65.3706   92.2662   12.9673 C.1     1  UNL1       -0.0689
     11 C          64.8809   91.2143   13.9180 C.3     1  UNL1        0.1432
     12 N          63.4361   91.1804   14.3196 N.3     1  UNL1       -0.3102
     13 H          63.2138   92.0162   14.8605 H       1  UNL1        0.1198
     14 H          63.2603   90.3514   14.8872 H       1  UNL1        0.1198
@<TRIPOS>BOND
     1     7     8    1
     2     8     1    1
     3     1     2   ar
     4     2     3   ar
     5     3     4   ar
     6     4     5   ar
     7     5     6   ar
     8     6     9    1
     9     9    10    3
    10    10    11    1
    11    11    12    1
    12     6     1   ar
    13    12    13    1
    14    12    14    1
@<TRIPOS>MOLECULE
*****
 14 14 0 0 0
SMALL
GASTEIGER

@<TRIPOS>ATOM
      1 C          63.1117   84.7676    9.4100 C.ar    1  UNL1       -0.0115
      2 C          63.8342   83.5253    9.8396 C.ar    1  UNL1        0.0170
      3 C          63.7882   83.0890   11.2740 C.ar    1  UNL1        0.0986
      4 N          63.0198   83.8950   12.2789 N.ar    1  UNL1       -0.2417
      5 C          62.2973   85.1374   11.8493 C.ar    1  UNL1        0.1067
      6 C          62.3432   85.5736   10.4149 C.ar    1  UNL1        0.0569
      7 C          62.0802   84.7722    7.0255 C.3     1  UNL1        0.0050
      8 C          63.1576   85.2039    7.9756 C.3     1  UNL1        0.0271
      9 C          61.6207   86.8160    9.9853 C.1     1  UNL1       -0.0618
     10 C          60.8982   88.0584    9.5558 C.1     1  UNL1       -0.0689
     11 C          60.1756   89.3008    9.1262 C.3     1  UNL1        0.1432
     12 N          60.1424   90.4988   10.0281 N.3     1  UNL1       -0.3102
     13 H          59.6123   90.2757   10.8705 H       1  UNL1        0.1198
     14 H          59.6974   91.2777    9.5426 H       1  UNL1        0.1198
@<TRIPOS>BOND
     1     7     8    1
     2     8     1    1
     3     1     2   ar
     4     2     3   ar
     5     3     4   ar
     6     4     5   ar
     7     5     6   ar
     8     6     9    1
     9     9    10    3
    10    10    11    1
    11    11    12    1
    12     6     1   ar
    13    12    13    1
    14    12    14    1
@<TRIPOS>MOLECULE
*****
 14 14 0 0 0
SMALL
GASTEIGER

@<TRIPOS>ATOM
      1 C          61.2166   86.9700    9.2790 C.ar    1  UNL1       -0.0115
      2 C          60.3274   86.1447    8.3969 C.ar    1  UNL1        0.0170
      3 C          59.2674   86.8087    7.5688 C.ar    1  UNL1        0.0986
      4 N          59.0968   88.2980    7.6228 N.ar    1  UNL1       -0.2417
      5 C          59.9860   89.1232    8.5049 C.ar    1  UNL1        0.1067
      6 C          61.0460   88.4592    9.3330 C.ar    1  UNL1        0.0569
      7 C          61.9177   85.6773   11.4208 C.3     1  UNL1        0.0050
      8 C          62.2765   86.3060   10.1070 C.3     1  UNL1        0.0271
      9 C          61.9353   89.2846   10.2151 C.1     1  UNL1       -0.0618
     10 C          62.8245   90.1099   11.0972 C.1     1  UNL1       -0.0689
     11 C          63.7138   90.9352   11.9793 C.3     1  UNL1        0.1432
     12 N          63.2854   91.2643   13.3786 N.3     1  UNL1       -0.3102
     13 H          62.4648   91.8694   13.3496 H       1  UNL1        0.1198
     14 H          64.0445   91.7439   13.8626 H       1  UNL1        0.1198
@<TRIPOS>BOND
     1     7     8    1
     2     8     1    1
     3     1     2   ar
     4     2     3   ar
     5     3     4   ar
     6     4     5   ar
     7     5     6   ar
     8     6     9    1
     9     9    10    3
    10    10    11    1
    11    11    12    1
    12     6     1   ar
    13    12    13    1
    14    12    14    1
@<TRIPOS>MOLECULE
*****
 14 14 0 0 0
SMALL
GASTEIGER

@<TRIPOS>ATOM
      1 C          63.1431   84.5495    9.7675 C.ar    1  UNL1       -0.0115
      2 C          62.8876   84.9231    8.3374 C.ar    1  UNL1        0.0170
      3 C          61.8197   85.9219    8.0026 C.ar    1  UNL1        0.0986
      4 N          61.0074   86.5470    9.0977 N.ar    1  UNL1       -0.2417
      5 C          61.2630   86.1733   10.5277 C.ar    1  UNL1        0.1067
      6 C          62.3308   85.1746   10.8626 C.ar    1  UNL1        0.0569
      7 C          63.8390   82.1320   10.4166 C.3     1  UNL1        0.0050
      8 C          64.2110   83.5507   10.1024 C.3     1  UNL1        0.0271
      9 C          62.5863   84.8009   12.2927 C.1     1  UNL1       -0.0618
     10 C          62.8419   84.4272   13.7227 C.1     1  UNL1       -0.0689
     11 C          63.0974   84.0536   15.1529 C.3     1  UNL1        0.1432
     12 N          62.8017   82.6622   15.6288 N.3     1  UNL1       -0.3102
     13 H          61.7966   82.4944   15.5856 H       1  UNL1        0.1198
     14 H          63.1230   82.5566   16.5911 H       1  UNL1        0.1198
@<TRIPOS>BOND
     1     7     8    1
     2     8     1    1
     3     1     2   ar
     4     2     3   ar
     5     3     4   ar
     6     4     5   ar
     7     5     6   ar
     8     6     9    1
     9     9    10    3
    10    10    11    1
    11    11    12    1
    12     6     1   ar
    13    12    13    1
    14    12    14    1
@<TRIPOS>MOLECULE
*****
 14 14 0 0 0
SMALL
GASTEIGER

@<TRIPOS>ATOM
      1 C          61.4832   88.0740    9.9642 C.ar    1  UNL1       -0.0115
      2 C          60.7061   89.1315    9.2378 C.ar    1  UNL1        0.0170
      3 C          59.7693   88.7468    8.1313 C.ar    1  UNL1        0.0986
      4 N          59.6096   87.3046    7.7512 N.ar    1  UNL1       -0.2417
      5 C          60.3867   86.2471    8.4776 C.ar    1  UNL1        0.1067
      6 C          61.3235   86.6318    9.5841 C.ar    1  UNL1        0.0569
      7 C          62.8012   89.8964   11.2649 C.3     1  UNL1        0.0050
      8 C          62.4200   88.4587   11.0708 C.3     1  UNL1        0.0271
      9 C          62.1006   85.5742   10.3106 C.1     1  UNL1       -0.0618
     10 C          62.8778   84.5167   11.0370 C.1     1  UNL1       -0.0689
     11 C          63.6549   83.4591   11.7634 C.3     1  UNL1        0.1432
     12 N          64.9306   82.9304   11.1777 N.3     1  UNL1       -0.3102
     13 H          64.7257   82.4285   10.3137 H       1  UNL1        0.1198
     14 H          65.3728   82.2960   11.8428 H       1  UNL1        0.1198
@<TRIPOS>BOND
     1     7     8    1
     2     8     1    1
     3     1     2   ar
     4     2     3   ar
     5     3     4   ar
     6     4     5   ar
     7     5     6   ar
     8     6     9    1
     9     9    10    3
    10    10    11    1
    11    11    12    1
    12     6     1   ar
    13    12    13    1
    14    12    14    1
@<TRIPOS>MOLECULE
*****
 14 14 0 0 0
SMALL
GASTEIGER

@<TRIPOS>ATOM
      1 C          60.6884   86.5972    8.8100 C.ar    1  UNL1       -0.0115
      2 C          61.2307   85.8161    9.9701 C.ar    1  UNL1        0.0170
      3 C          61.4150   86.4815   11.3018 C.ar    1  UNL1        0.0986
      4 N          61.0569   87.9280   11.4733 N.ar    1  UNL1       -0.2417
      5 C          60.5147   88.7090   10.3133 C.ar    1  UNL1        0.1067
      6 C          60.3304   88.0437    8.9816 C.ar    1  UNL1        0.0569
      7 C          61.5731   85.0300    6.9363 C.3     1  UNL1        0.0050
      8 C          60.5041   85.9318    7.4784 C.3     1  UNL1        0.0271
      9 C          59.7881   88.8248    7.8215 C.1     1  UNL1       -0.0618
     10 C          59.2458   89.6059    6.6615 C.1     1  UNL1       -0.0689
     11 C          58.7035   90.3871    5.5014 C.3     1  UNL1        0.1432
     12 N          58.8977   91.8732    5.4415 N.3     1  UNL1       -0.3102
     13 H          58.3799   92.3146    6.2015 H       1  UNL1        0.1198
     14 H          58.5553   92.2251    4.5475 H       1  UNL1        0.1198
@<TRIPOS>BOND
     1     7     8    1
     2     8     1    1
     3     1     2   ar
     4     2     3   ar
     5     3     4   ar
     6     4     5   ar
     7     5     6   ar
     8     6     9    1
     9     9    10    3
    10    10    11    1
    11    11    12    1
    12     6     1   ar
    13    12    13    1
    14    12    14    1
@<TRIPOS>MOLECULE
*****
 14 14 0 0 0
SMALL
GASTEIGER

@<TRIPOS>ATOM
      1 C          64.9141   91.2604   14.0353 C.ar    1  UNL1       -0.0115
      2 C          65.9770   91.8602   14.9074 C.ar    1  UNL1        0.0170
      3 C          66.8925   92.9133   14.3573 C.ar    1  UNL1        0.0986
      4 N          66.7453   93.3667   12.9351 N.ar    1  UNL1       -0.2417
      5 C          65.6825   92.7669   12.0630 C.ar    1  UNL1        0.1067
      6 C          64.7669   91.7138   12.6131 C.ar    1  UNL1        0.0569
      7 C          64.3811   88.7597   14.4959 C.3     1  UNL1        0.0050
      8 C          63.9985   90.2073   14.5854 C.3     1  UNL1        0.0271
      9 C          63.7040   91.1140   11.7409 C.1     1  UNL1       -0.0618
     10 C          62.6411   90.5143   10.8688 C.1     1  UNL1       -0.0689
     11 C          61.5783   89.9145    9.9966 C.3     1  UNL1        0.1432
     12 N          60.1964   90.4980    9.9894 N.3     1  UNL1       -0.3102
     13 H          59.7647   90.3608   10.9033 H       1  UNL1        0.1198
     14 H          59.6352   90.0340    9.2752 H       1  UNL1        0.1198
@<TRIPOS>BOND
     1     7     8    1
     2     8     1    1
     3     1     2   ar
     4     2     3   ar
     5     3     4   ar
     6     4     5   ar
     7     5     6   ar
     8     6     9    1
     9     9    10    3
    10    10    11    1
    11    11    12    1
    12     6     1   ar
    13    12    13    1
    14    12    14    1
@<TRIPOS>MOLECULE
*****
 14 14 0 0 0
SMALL
GASTEIGER

@<TRIPOS>ATOM
      1 C          63.0224   82.7736   12.3845 C.ar    1  UNL1       -0.0115
      2 C          63.0323   81.6852   11.3525 C.ar    1  UNL1        0.0170
      3 C          62.6991   80.2763   11.7452 C.ar    1  UNL1        0.0986
      4 N          62.3560   79.9560   13.1698 N.ar    1  UNL1       -0.2417
      5 C          62.3461   81.0445   14.2018 C.ar    1  UNL1        0.1067
      6 C          62.6793   82.4533   13.8092 C.ar    1  UNL1        0.0569
      7 C          62.3083   85.0539   11.3645 C.3     1  UNL1        0.0050
      8 C          63.3556   84.1825   11.9919 C.3     1  UNL1        0.0271
      9 C          62.6694   83.5418   14.8412 C.1     1  UNL1       -0.0618
     10 C          62.6596   84.6303   15.8732 C.1     1  UNL1       -0.0689
     11 C          62.6497   85.7188   16.9053 C.3     1  UNL1        0.1432
     12 N          61.3826   86.4683   17.1927 N.3     1  UNL1       -0.3102
     13 H          61.1140   87.0098   16.3711 H       1  UNL1        0.1198
     14 H          61.5315   87.0982   17.9811 H       1  UNL1        0.1198
@<TRIPOS>BOND
     1     7     8    1
     2     8     1    1
     3     1     2   ar
     4     2     3   ar
     5     3     4   ar
     6     4     5   ar
     7     5     6   ar
     8     6     9    1
     9     9    10    3
    10    10    11    1
    11    11    12    1
    12     6     1   ar
    13    12    13    1
    14    12    14    1
