@<TRIPOS>MOLECULE
*****
 36 38 0 0 0
SMALL
GASTEIGER

@<TRIPOS>ATOM
      1 N          63.4597   86.2813   13.5882 N.pl3   1  UNL1       -0.2927
      2 C          64.3357   86.8908   14.6422 C.3     1  UNL1        0.0927
      3 C          64.6720   88.3514   14.5854 C.3     1  UNL1        0.0306
      4 C          64.1324   89.2027   13.4745 C.3     1  UNL1        0.0814
      5 C          63.2565   88.5932   12.4204 C.3     1  UNL1        0.0306
      6 C          62.9201   87.1325   12.4772 C.3     1  UNL1        0.0927
      7 C          62.4505   81.8992   13.7587 C.ar    1  UNL1        0.0900
      8 C          62.1643   82.7812   14.9377 C.ar    1  UNL1        0.0207
      9 C          62.5007   84.2419   14.8809 C.ar    1  UNL1        0.1001
     10 C          63.1233   84.8206   13.6450 C.ar    1  UNL1        0.1409
     11 N          63.4095   83.9386   12.4660 N.ar    1  UNL1       -0.2341
     12 C          63.0731   82.4779   12.5228 C.ar    1  UNL1        0.0670
     13 C          63.3594   81.5959   11.3437 C.3     1  UNL1        0.0524
     14 C          62.1142   80.4385   13.8155 C.2     1  UNL1        0.3424
     15 O          63.1457   79.4484   14.2688 O.2     1  UNL1       -0.2449
     16 O          60.7462   79.9679   13.4191 O.3     1  UNL1       -0.4454
     17 C          58.5769   79.4547   14.7534 C.3     1  UNL1        0.0513
     18 C          59.5408   80.4465   14.1726 C.3     1  UNL1        0.2089
     19 C          62.2145   85.1239   16.0600 C.1     1  UNL1        0.1032
     20 N          61.9283   86.0058   17.2390 N.1     1  UNL1       -0.1907
     21 C          64.4688   90.6634   13.4176 C.2     1  UNL1        0.2402
     22 O          63.7773   91.6285   14.3343 O.2     1  UNL1       -0.2736
     23 N          65.4967   91.1589   12.4441 N.am    1  UNL1       -0.1885
     24 H          65.9506   90.5255   11.8425 H       1  UNL1        0.1762
     25 S          65.8331   92.6196   12.3873 S.O2    1  UNL1        0.0602
     26 O          64.6458   92.8586   11.5023 O.2     1  UNL1       -0.1541
     27 O          67.0204   92.3806   13.2723 O.2     1  UNL1       -0.1541
     28 C          66.1695   94.0803   12.3304 C.3     1  UNL1        0.1988
     29 C          66.2813   94.7732   11.0048 C.ar    1  UNL1        0.0034
     30 C          67.0475   94.1322    9.8858 C.ar    1  UNL1        0.0006
     31 C          67.1593   94.8250    8.5601 C.ar    1  UNL1        0.0366
     32 C          66.5050   96.1589    8.3534 C.ar    1  UNL1        0.1387
     33 C          65.7389   96.7999    9.4724 C.ar    1  UNL1        0.0366
     34 C          65.6270   96.1070   10.7981 C.ar    1  UNL1        0.0006
     35 O          66.6169   96.8518    7.0277 O.3     1  UNL1       -0.4714
     36 C          65.4518   96.8558    6.0829 C.3     1  UNL1        0.2525
@<TRIPOS>BOND
     1    17    18    1
     2    18    16    1
     3    16    14    1
     4    14    15    2
     5    14     7    1
     6     7     8   ar
     7     8     9   ar
     8     9    19    1
     9    19    20    3
    10     9    10   ar
    11    10     1    1
    12     1     2    1
    13     2     3    1
    14     3     4    1
    15     4    21    1
    16    21    22    2
    17    21    23   am
    18    23    25    1
    19    25    26    2
    20    25    27    2
    21    25    28    1
    22    28    29    1
    23    29    30   ar
    24    30    31   ar
    25    31    32   ar
    26    32    35    1
    27    35    36    1
    28    32    33   ar
    29    33    34   ar
    30     4     5    1
    31     5     6    1
    32    10    11   ar
    33    11    12   ar
    34    12    13    1
    35    12     7   ar
    36     6     1    1
    37    34    29   ar
    38    23    24    1
