@<TRIPOS>MOLECULE
*****
 35 38 0 0 0
SMALL
GASTEIGER

@<TRIPOS>ATOM
      1 C          64.5710   85.6253   14.5697 C.2     1  UNL1        0.2015
      2 O          65.9960   85.1863   14.7323 O.2     1  UNL1       -0.2864
      3 C          63.9574   86.5652   15.5647 C.ar    1  UNL1        0.0611
      4 C          63.2048   86.1719   16.8013 C.ar    1  UNL1        0.1037
      5 N          62.7710   87.4271   17.4986 N.ar    1  UNL1       -0.2269
      6 C          63.2555   88.5961   16.6931 C.ar    1  UNL1        0.1407
      7 N          63.1237   90.0767   16.8936 N.ar    1  UNL1       -0.3374
      8 C          63.7251   91.0247   15.8988 C.ar    1  UNL1        0.0735
      9 C          64.4583   90.4920   14.7036 C.ar    1  UNL1        0.0186
     10 C          64.5901   89.0113   14.5031 C.ar    1  UNL1        0.0047
     11 C          63.9887   88.0634   15.4979 C.ar    1  UNL1        0.0386
     12 H          62.6424   90.4264   17.6781 H       1  UNL1        0.1674
     13 C          65.0598   91.4400   13.7088 C.ar    1  UNL1        0.0207
     14 C          64.4601   91.5710   12.3401 C.ar    1  UNL1        0.0040
     15 C          65.0615   92.5190   11.3453 C.ar    1  UNL1        0.0308
     16 C          66.2626   93.3361   11.7193 C.ar    1  UNL1        0.1384
     17 CL         66.8641   94.2841   10.7245 Cl      1  UNL1       -0.0613
     18 N          66.8623   93.2050   13.0880 N.ar    1  UNL1       -0.2324
     19 C          66.2609   92.2570   14.0827 C.ar    1  UNL1        0.0998
     20 C          62.4177   85.5890   11.2362 C.ar    1  UNL1        0.0920
     21 C          62.1363   84.1223   11.0964 C.ar    1  UNL1        0.0204
     22 C          62.6665   83.1565   12.1144 C.ar    1  UNL1        0.0312
     23 C          63.4781   83.6575   13.2721 C.ar    1  UNL1        0.1454
     24 F          64.0083   82.6918   14.2901 F       1  UNL1       -0.2040
     25 C          63.7594   85.1242   13.4119 C.ar    1  UNL1        0.0951
     26 C          63.2292   86.0899   12.3939 C.ar    1  UNL1        0.1598
     27 F          63.5106   87.5567   12.5338 F       1  UNL1       -0.2026
     28 N          61.8875   86.5547   10.2182 N.pl3   1  UNL1       -0.2166
     29 H          61.7574   87.5007   10.4580 H       1  UNL1        0.1734
     30 S          61.5554   86.0792    8.8349 S.O2    1  UNL1        0.0540
     31 O          63.0055   85.7856    8.5877 O.2     1  UNL1       -0.1545
     32 O          60.1053   86.3727    9.0821 O.2     1  UNL1       -0.1545
     33 C          61.2232   85.6036    7.4516 C.3     1  UNL1        0.1724
     34 C          61.8025   84.0996    5.4138 C.3     1  UNL1        0.0019
     35 C          62.2182   84.7888    6.6795 C.3     1  UNL1        0.0273
@<TRIPOS>BOND
     1    34    35    1
     2    35    33    1
     3    33    30    1
     4    30    31    2
     5    30    32    2
     6    30    28    1
     7    28    20    1
     8    20    21   ar
     9    21    22   ar
    10    22    23   ar
    11    23    24    1
    12    23    25   ar
    13    25     1    1
    14     1     2    2
    15     1     3    1
    16     3     4   ar
    17     4     5   ar
    18     5     6   ar
    19     6     7   ar
    20     7     8   ar
    21     8     9   ar
    22     9    13    1
    23    13    14   ar
    24    14    15   ar
    25    15    16   ar
    26    16    17    1
    27    16    18   ar
    28    18    19   ar
    29     9    10   ar
    30    10    11   ar
    31    25    26   ar
    32    26    27    1
    33    26    20   ar
    34    11     3   ar
    35    11     6    1
    36    19    13   ar
    37    28    29    1
    38     7    12    1
@<TRIPOS>MOLECULE
*****
 35 38 0 0 0
SMALL
GASTEIGER

@<TRIPOS>ATOM
      1 C          64.7113   85.5882   14.7559 C.2     1  UNL1        0.2015
      2 O          66.2019   85.4382   14.8286 O.2     1  UNL1       -0.2864
      3 C          64.0112   86.5655   15.6530 C.ar    1  UNL1        0.0611
      4 C          63.1821   86.2217   16.8548 C.ar    1  UNL1        0.1037
      5 N          62.6758   87.5019   17.4503 N.ar    1  UNL1       -0.2269
      6 C          63.1920   88.6370   16.6166 C.ar    1  UNL1        0.1407
      7 N          63.0172   90.1228   16.7254 N.ar    1  UNL1       -0.3374
      8 C          63.6677   91.0298   15.7233 C.ar    1  UNL1        0.0735
      9 C          64.4930   90.4511   14.6125 C.ar    1  UNL1        0.0186
     10 C          64.6679   88.9653   14.5038 C.ar    1  UNL1        0.0047
     11 C          64.0174   88.0583   15.5058 C.ar    1  UNL1        0.0386
     12 H          62.4755   90.5026   17.4544 H       1  UNL1        0.1674
     13 C          65.1435   91.3582   13.6105 C.ar    1  UNL1        0.0207
     14 C          64.4743   91.6250   12.2949 C.ar    1  UNL1        0.0040
     15 C          65.1248   92.5321   11.2928 C.ar    1  UNL1        0.0308
     16 C          66.4446   93.1724   11.6065 C.ar    1  UNL1        0.1384
     17 CL         67.0951   94.0795   10.6045 Cl      1  UNL1       -0.0613
     18 N          67.1138   92.9056   12.9222 N.ar    1  UNL1       -0.2324
     19 C          66.4633   91.9985   13.9242 C.ar    1  UNL1        0.0998
     20 C          62.5477   84.5693   11.5887 C.ar    1  UNL1        0.0920
     21 C          62.3394   83.1064   11.8465 C.ar    1  UNL1        0.0204
     22 C          62.9217   82.4707   13.0740 C.ar    1  UNL1        0.0312
     23 C          63.7123   83.2979   14.0438 C.ar    1  UNL1        0.1454
     24 F          64.2947   82.6623   15.2714 F       1  UNL1       -0.2040
     25 C          63.9206   84.7609   13.7861 C.ar    1  UNL1        0.0951
     26 C          63.3383   85.3965   12.5586 C.ar    1  UNL1        0.1598
     27 F          63.5466   86.8595   12.3009 F       1  UNL1       -0.2026
     28 N          61.9654   85.2050   10.3612 N.pl3   1  UNL1       -0.2166
     29 H          61.8021   84.6623    9.5562 H       1  UNL1        0.1734
     30 S          61.6318   86.6674   10.3603 S.O2    1  UNL1        0.0540
     31 O          60.7620   86.4698   11.5662 O.2     1  UNL1       -0.1545
     32 O          62.5017   86.8650    9.1544 O.2     1  UNL1       -0.1545
     33 C          61.2983   88.1298   10.3593 C.3     1  UNL1        0.1724
     34 C          62.1052   90.5785   10.0380 C.3     1  UNL1        0.0019
     35 C          62.3978   89.1498   10.3889 C.3     1  UNL1        0.0273
@<TRIPOS>BOND
     1    34    35    1
     2    35    33    1
     3    33    30    1
     4    30    31    2
     5    30    32    2
     6    30    28    1
     7    28    20    1
     8    20    21   ar
     9    21    22   ar
    10    22    23   ar
    11    23    24    1
    12    23    25   ar
    13    25     1    1
    14     1     2    2
    15     1     3    1
    16     3     4   ar
    17     4     5   ar
    18     5     6   ar
    19     6     7   ar
    20     7     8   ar
    21     8     9   ar
    22     9    13    1
    23    13    14   ar
    24    14    15   ar
    25    15    16   ar
    26    16    17    1
    27    16    18   ar
    28    18    19   ar
    29     9    10   ar
    30    10    11   ar
    31    25    26   ar
    32    26    27    1
    33    26    20   ar
    34    11     3   ar
    35    11     6    1
    36    19    13   ar
    37    28    29    1
    38     7    12    1
@<TRIPOS>MOLECULE
*****
 35 38 0 0 0
SMALL
GASTEIGER

@<TRIPOS>ATOM
      1 C          62.6766   85.5742    9.2015 C.2     1  UNL1        0.2015
      2 O          63.5487   85.4485    7.9876 O.2     1  UNL1       -0.2864
      3 C          61.5251   86.5354    9.2016 C.ar    1  UNL1        0.0611
      4 C          60.1479   86.2614    8.6741 C.ar    1  UNL1        0.1037
      5 N          59.3203   87.4961    8.8757 N.ar    1  UNL1       -0.2269
      6 C          60.1860   88.5331    9.5278 C.ar    1  UNL1        0.1407
      7 N          59.9095   89.9413    9.9641 N.ar    1  UNL1       -0.3374
      8 C          60.9956   90.7558   10.6019 C.ar    1  UNL1        0.0735
      9 C          62.3583   90.1621   10.8033 C.ar    1  UNL1        0.0186
     10 C          62.6348   88.7539   10.3669 C.ar    1  UNL1        0.0047
     11 C          61.5486   87.9394    9.7292 C.ar    1  UNL1        0.0386
     12 H          59.0151   90.3310    9.8319 H       1  UNL1        0.1674
     13 C          63.4445   90.9766   11.4411 C.ar    1  UNL1        0.0207
     14 C          64.3039   91.8717   10.5983 C.ar    1  UNL1        0.0040
     15 C          65.3901   92.6863   11.2361 C.ar    1  UNL1        0.0308
     16 C          65.6169   92.6057   12.7167 C.ar    1  UNL1        0.1384
     17 CL         66.7030   93.4202   13.3545 Cl      1  UNL1       -0.0613
     18 N          64.7575   91.7105   13.5595 N.ar    1  UNL1       -0.2324
     19 C          63.6713   90.8960   12.9216 C.ar    1  UNL1        0.0998
     20 C          62.5968   84.2494   12.9417 C.ar    1  UNL1        0.0920
     21 C          63.5152   83.0675   12.8434 C.ar    1  UNL1        0.0204
     22 C          64.1541   82.7212   11.5312 C.ar    1  UNL1        0.0312
     23 C          63.8746   83.5567   10.3173 C.ar    1  UNL1        0.1454
     24 F          64.5135   83.2104    9.0051 F       1  UNL1       -0.2040
     25 C          62.9562   84.7386   10.4155 C.ar    1  UNL1        0.0951
     26 C          62.3173   85.0849   11.7277 C.ar    1  UNL1        0.1598
     27 F          61.3989   86.2668   11.8259 F       1  UNL1       -0.2026
     28 N          61.9579   84.5957   14.2539 N.pl3   1  UNL1       -0.2166
     29 H          60.9952   84.4401   14.3890 H       1  UNL1        0.1734
     30 S          62.7858   85.1791   15.3603 S.O2    1  UNL1        0.0540
     31 O          63.4684   86.0802   14.3744 O.2     1  UNL1       -0.1545
     32 O          62.1032   84.2780   16.3462 O.2     1  UNL1       -0.1545
     33 C          63.6137   85.7624   16.4668 C.3     1  UNL1        0.1724
     34 C          63.0440   88.2019   17.1558 C.3     1  UNL1        0.0019
     35 C          62.9979   86.7288   17.4348 C.3     1  UNL1        0.0273
@<TRIPOS>BOND
     1    34    35    1
     2    35    33    1
     3    33    30    1
     4    30    31    2
     5    30    32    2
     6    30    28    1
     7    28    20    1
     8    20    21   ar
     9    21    22   ar
    10    22    23   ar
    11    23    24    1
    12    23    25   ar
    13    25     1    1
    14     1     2    2
    15     1     3    1
    16     3     4   ar
    17     4     5   ar
    18     5     6   ar
    19     6     7   ar
    20     7     8   ar
    21     8     9   ar
    22     9    13    1
    23    13    14   ar
    24    14    15   ar
    25    15    16   ar
    26    16    17    1
    27    16    18   ar
    28    18    19   ar
    29     9    10   ar
    30    10    11   ar
    31    25    26   ar
    32    26    27    1
    33    26    20   ar
    34    11     3   ar
    35    11     6    1
    36    19    13   ar
    37    28    29    1
    38     7    12    1
@<TRIPOS>MOLECULE
*****
 35 38 0 0 0
SMALL
GASTEIGER

@<TRIPOS>ATOM
      1 C          64.7762   85.8419   14.5788 C.2     1  UNL1        0.2015
      2 O          66.2506   85.6030   14.7161 O.2     1  UNL1       -0.2864
      3 C          64.0797   86.7883   15.5111 C.ar    1  UNL1        0.0611
      4 C          63.2832   86.4055   16.7232 C.ar    1  UNL1        0.1037
      5 N          62.7687   87.6644   17.3562 N.ar    1  UNL1       -0.2269
      6 C          63.2472   88.8251   16.5353 C.ar    1  UNL1        0.1407
      7 N          63.0499   90.3051   16.6789 N.ar    1  UNL1       -0.3374
      8 C          63.6627   91.2436   15.6822 C.ar    1  UNL1        0.0735
      9 C          64.4730   90.7021   14.5419 C.ar    1  UNL1        0.0186
     10 C          64.6704   89.2222   14.3983 C.ar    1  UNL1        0.0047
     11 C          64.0575   88.2836   15.3950 C.ar    1  UNL1        0.0386
     12 H          62.5181   90.6604   17.4273 H       1  UNL1        0.1674
     13 C          65.0859   91.6408   13.5451 C.ar    1  UNL1        0.0207
     14 C          64.5873   91.6628   12.1306 C.ar    1  UNL1        0.0040
     15 C          65.2002   92.6014   11.1339 C.ar    1  UNL1        0.0308
     16 C          66.3117   93.5179   11.5517 C.ar    1  UNL1        0.1384
     17 CL         66.9246   94.4565   10.5551 Cl      1  UNL1       -0.0613
     18 N          66.8102   93.4959   12.9663 N.ar    1  UNL1       -0.2324
     19 C          66.1973   92.5573   13.9630 C.ar    1  UNL1        0.0998
     20 C          63.1512   82.9283   12.4292 C.ar    1  UNL1        0.0920
     21 C          62.4422   83.7191   11.3700 C.ar    1  UNL1        0.0204
     22 C          62.5112   85.2175   11.3804 C.ar    1  UNL1        0.0312
     23 C          63.2891   85.9251   12.4500 C.ar    1  UNL1        0.1454
     24 F          63.3581   87.4235   12.4604 F       1  UNL1       -0.2040
     25 C          63.9982   85.1343   13.5092 C.ar    1  UNL1        0.0951
     26 C          63.9292   83.6359   13.4987 C.ar    1  UNL1        0.1598
     27 F          64.6382   82.8451   14.5580 F       1  UNL1       -0.2026
     28 N          63.0822   81.4299   12.4188 N.pl3   1  UNL1       -0.2166
     29 H          63.6814   80.9136   11.8325 H       1  UNL1        0.1734
     30 S          62.1003   80.7182   13.3016 S.O2    1  UNL1        0.0540
     31 O          61.7810   82.0122   13.9897 O.2     1  UNL1       -0.1545
     32 O          62.4196   79.4242   12.6135 O.2     1  UNL1       -0.1545
     33 C          61.1185   80.0064   14.1843 C.3     1  UNL1        0.1724
     34 C          58.6127   79.4771   14.6215 C.3     1  UNL1        0.0019
     35 C          59.6846   80.4457   14.2180 C.3     1  UNL1        0.0273
@<TRIPOS>BOND
     1    34    35    1
     2    35    33    1
     3    33    30    1
     4    30    31    2
     5    30    32    2
     6    30    28    1
     7    28    20    1
     8    20    21   ar
     9    21    22   ar
    10    22    23   ar
    11    23    24    1
    12    23    25   ar
    13    25     1    1
    14     1     2    2
    15     1     3    1
    16     3     4   ar
    17     4     5   ar
    18     5     6   ar
    19     6     7   ar
    20     7     8   ar
    21     8     9   ar
    22     9    13    1
    23    13    14   ar
    24    14    15   ar
    25    15    16   ar
    26    16    17    1
    27    16    18   ar
    28    18    19   ar
    29     9    10   ar
    30    10    11   ar
    31    25    26   ar
    32    26    27    1
    33    26    20   ar
    34    11     3   ar
    35    11     6    1
    36    19    13   ar
    37    28    29    1
    38     7    12    1
@<TRIPOS>MOLECULE
*****
 35 38 0 0 0
SMALL
GASTEIGER

@<TRIPOS>ATOM
      1 C          63.1742   90.3980   12.9921 C.2     1  UNL1        0.2015
      2 O          62.6119   90.0977   14.3498 O.2     1  UNL1       -0.2864
      3 C          62.4460   89.9448   11.7616 C.ar    1  UNL1        0.0611
      4 C          61.7910   90.8343   10.7468 C.ar    1  UNL1        0.1037
      5 N          61.1851   89.9616    9.6879 N.ar    1  UNL1       -0.2269
      6 C          61.4657   88.5328   10.0481 C.ar    1  UNL1        0.1407
      7 N          61.1124   87.2399    9.3747 N.ar    1  UNL1       -0.3374
      8 C          61.5382   85.9366    9.9829 C.ar    1  UNL1        0.0735
      9 C          62.3175   85.9262   11.2645 C.ar    1  UNL1        0.0186
     10 C          62.6709   87.2191   11.9380 C.ar    1  UNL1        0.0047
     11 C          62.2450   88.5224   11.3297 C.ar    1  UNL1        0.0386
     12 H          60.6009   87.2468    8.5335 H       1  UNL1        0.1674
     13 C          62.7434   84.6228   11.8728 C.ar    1  UNL1        0.0207
     14 C          63.2711   83.5241   10.9985 C.ar    1  UNL1        0.0040
     15 C          63.6970   82.2207   11.6067 C.ar    1  UNL1        0.0308
     16 C          63.5952   82.0161   13.0892 C.ar    1  UNL1        0.1384
     17 CL         64.0210   80.7128   13.6975 Cl      1  UNL1       -0.0613
     18 N          63.0675   83.1149   13.9635 N.ar    1  UNL1       -0.2324
     19 C          62.6416   84.4182   13.3553 C.ar    1  UNL1        0.0998
     20 C          66.1160   92.5615   11.4379 C.ar    1  UNL1        0.0920
     21 C          67.0464   92.6589   12.6105 C.ar    1  UNL1        0.0204
     22 C          66.6860   92.0026   13.9103 C.ar    1  UNL1        0.0312
     23 C          65.3953   91.2490   14.0375 C.ar    1  UNL1        0.1454
     24 F          65.0350   90.5928   15.3373 F       1  UNL1       -0.2040
     25 C          64.4650   91.1517   12.8649 C.ar    1  UNL1        0.0951
     26 C          64.8254   91.8079   11.5651 C.ar    1  UNL1        0.1598
     27 F          63.8950   91.7105   10.3925 F       1  UNL1       -0.2026
     28 N          66.4764   93.2177   10.1381 N.pl3   1  UNL1       -0.2166
     29 H          66.5037   92.6868    9.3095 H       1  UNL1        0.1734
     30 S          66.7951   94.6830   10.1007 S.O2    1  UNL1        0.0540
     31 O          68.1766   94.3699    9.6072 O.2     1  UNL1       -0.1545
     32 O          65.4137   94.9961   10.5943 O.2     1  UNL1       -0.1545
     33 C          67.1138   96.1483   10.0634 C.3     1  UNL1        0.1724
     34 C          66.3198   96.5158    7.6170 C.3     1  UNL1        0.0019
     35 C          67.2476   96.8534    8.7462 C.3     1  UNL1        0.0273
@<TRIPOS>BOND
     1    34    35    1
     2    35    33    1
     3    33    30    1
     4    30    31    2
     5    30    32    2
     6    30    28    1
     7    28    20    1
     8    20    21   ar
     9    21    22   ar
    10    22    23   ar
    11    23    24    1
    12    23    25   ar
    13    25     1    1
    14     1     2    2
    15     1     3    1
    16     3     4   ar
    17     4     5   ar
    18     5     6   ar
    19     6     7   ar
    20     7     8   ar
    21     8     9   ar
    22     9    13    1
    23    13    14   ar
    24    14    15   ar
    25    15    16   ar
    26    16    17    1
    27    16    18   ar
    28    18    19   ar
    29     9    10   ar
    30    10    11   ar
    31    25    26   ar
    32    26    27    1
    33    26    20   ar
    34    11     3   ar
    35    11     6    1
    36    19    13   ar
    37    28    29    1
    38     7    12    1
@<TRIPOS>MOLECULE
*****
 35 38 0 0 0
SMALL
GASTEIGER

@<TRIPOS>ATOM
      1 C          64.2310   90.4756   14.2706 C.2     1  UNL1        0.2015
      2 O          63.2292   91.2215   15.1010 O.2     1  UNL1       -0.2864
      3 C          64.1640   88.9799   14.1785 C.ar    1  UNL1        0.0611
      4 C          64.8046   88.0087   15.1252 C.ar    1  UNL1        0.1037
      5 N          64.4812   86.6215   14.6552 N.ar    1  UNL1       -0.2269
      6 C          63.6406   86.7353   13.4181 C.ar    1  UNL1        0.1407
      7 N          63.0284   85.7000   12.5218 N.ar    1  UNL1       -0.3374
      8 C          62.2202   86.1224   11.3309 C.ar    1  UNL1        0.0735
      9 C          62.0242   87.5800   11.0362 C.ar    1  UNL1        0.0186
     10 C          62.6364   88.6153   11.9325 C.ar    1  UNL1        0.0047
     11 C          63.4446   88.1930   13.1234 C.ar    1  UNL1        0.0386
     12 H          63.1571   84.7433   12.7152 H       1  UNL1        0.1674
     13 C          61.2160   88.0024    9.8452 C.ar    1  UNL1        0.0207
     14 C          60.6256   86.9673    8.9341 C.ar    1  UNL1        0.0040
     15 C          59.8174   87.3896    7.7431 C.ar    1  UNL1        0.0308
     16 C          59.5995   88.8471    7.4633 C.ar    1  UNL1        0.1384
     17 CL         58.7913   89.2695    6.2723 Cl      1  UNL1       -0.0613
     18 N          60.1899   89.8822    8.3744 N.ar    1  UNL1       -0.2324
     19 C          60.9981   89.4598    9.5653 C.ar    1  UNL1        0.0998
     20 C          66.0502   92.6470   11.4910 C.ar    1  UNL1        0.0920
     21 C          67.4378   92.7249   12.0553 C.ar    1  UNL1        0.0204
     22 C          67.7565   92.0531   13.3581 C.ar    1  UNL1        0.0312
     23 C          66.6876   91.3034   14.0965 C.ar    1  UNL1        0.1454
     24 F          67.0063   90.6316   15.3992 F       1  UNL1       -0.2040
     25 C          65.3000   91.2254   13.5321 C.ar    1  UNL1        0.0951
     26 C          64.9813   91.8972   12.2294 C.ar    1  UNL1        0.1598
     27 F          63.5937   91.8192   11.6651 F       1  UNL1       -0.2026
     28 N          65.7315   93.3188   10.1883 N.pl3   1  UNL1       -0.2166
     29 H          65.0984   92.9009    9.5608 H       1  UNL1        0.1734
     30 S          66.3776   94.6274    9.8415 S.O2    1  UNL1        0.0540
     31 O          65.4588   95.3334   10.7940 O.2     1  UNL1       -0.1545
     32 O          67.2964   93.9213    8.8890 O.2     1  UNL1       -0.1545
     33 C          67.0237   95.9359    9.4947 C.3     1  UNL1        0.1724
     34 C          65.8877   96.8436    7.3415 C.3     1  UNL1        0.0019
     35 C          67.1154   96.3706    8.0620 C.3     1  UNL1        0.0273
@<TRIPOS>BOND
     1    34    35    1
     2    35    33    1
     3    33    30    1
     4    30    31    2
     5    30    32    2
     6    30    28    1
     7    28    20    1
     8    20    21   ar
     9    21    22   ar
    10    22    23   ar
    11    23    24    1
    12    23    25   ar
    13    25     1    1
    14     1     2    2
    15     1     3    1
    16     3     4   ar
    17     4     5   ar
    18     5     6   ar
    19     6     7   ar
    20     7     8   ar
    21     8     9   ar
    22     9    13    1
    23    13    14   ar
    24    14    15   ar
    25    15    16   ar
    26    16    17    1
    27    16    18   ar
    28    18    19   ar
    29     9    10   ar
    30    10    11   ar
    31    25    26   ar
    32    26    27    1
    33    26    20   ar
    34    11     3   ar
    35    11     6    1
    36    19    13   ar
    37    28    29    1
    38     7    12    1
@<TRIPOS>MOLECULE
*****
 35 38 0 0 0
SMALL
GASTEIGER

@<TRIPOS>ATOM
      1 C          62.8423   85.4290   10.9744 C.2     1  UNL1        0.2015
      2 O          63.7395   84.7836    9.9604 O.2     1  UNL1       -0.2864
      3 C          61.8315   86.4488   10.5404 C.ar    1  UNL1        0.0611
      4 C          60.5472   86.1658    9.8189 C.ar    1  UNL1        0.1037
      5 N          59.8496   87.4728    9.5844 N.ar    1  UNL1       -0.2269
      6 C          60.7027   88.5636   10.1609 C.ar    1  UNL1        0.1407
      7 N          60.5224   90.0514   10.2242 N.ar    1  UNL1       -0.3374
      8 C          61.5670   90.9063   10.8783 C.ar    1  UNL1        0.0735
      9 C          62.7919   90.2734   11.4692 C.ar    1  UNL1        0.0186
     10 C          62.9722   88.7857   11.4059 C.ar    1  UNL1        0.0047
     11 C          61.9276   87.9308   10.7518 C.ar    1  UNL1        0.0386
     12 H          59.7184   90.4667    9.8364 H       1  UNL1        0.1674
     13 C          63.8365   91.1284   12.1234 C.ar    1  UNL1        0.0207
     14 C          64.6883   92.0403   11.2911 C.ar    1  UNL1        0.0040
     15 C          65.7329   92.8953   11.9452 C.ar    1  UNL1        0.0308
     16 C          65.9256   92.8383   13.4317 C.ar    1  UNL1        0.1384
     17 CL         66.9702   93.6932   14.0859 Cl      1  UNL1       -0.0613
     18 N          65.0738   91.9263   14.2640 N.ar    1  UNL1       -0.2324
     19 C          64.0292   91.0714   13.6098 C.ar    1  UNL1        0.0998
     20 C          62.6224   83.3245   14.3320 C.ar    1  UNL1        0.0920
     21 C          63.1827   84.3056   15.3186 C.ar    1  UNL1        0.0204
     22 C          63.6296   85.6611   14.8572 C.ar    1  UNL1        0.0312
     23 C          63.5161   86.0356   13.4092 C.ar    1  UNL1        0.1454
     24 F          63.9630   87.3911   12.9478 F       1  UNL1       -0.2040
     25 C          62.9558   85.0546   12.4225 C.ar    1  UNL1        0.0951
     26 C          62.5089   83.6990   12.8839 C.ar    1  UNL1        0.1598
     27 F          61.9486   82.7180   11.8972 F       1  UNL1       -0.2026
     28 N          62.1755   81.9690   14.7934 N.pl3   1  UNL1       -0.2166
     29 H          61.8079   81.8539   15.6994 H       1  UNL1        0.1734
     30 S          62.2887   80.7890   13.8743 S.O2    1  UNL1        0.0540
     31 O          60.7930   80.7017   13.8022 O.2     1  UNL1       -0.1545
     32 O          63.7844   80.8762   13.9465 O.2     1  UNL1       -0.1545
     33 C          62.4019   79.6090   12.9553 C.3     1  UNL1        0.1724
     34 C          62.7364   78.6632   10.5586 C.3     1  UNL1        0.0019
     35 C          62.8061   79.8086   11.5246 C.3     1  UNL1        0.0273
@<TRIPOS>BOND
     1    34    35    1
     2    35    33    1
     3    33    30    1
     4    30    31    2
     5    30    32    2
     6    30    28    1
     7    28    20    1
     8    20    21   ar
     9    21    22   ar
    10    22    23   ar
    11    23    24    1
    12    23    25   ar
    13    25     1    1
    14     1     2    2
    15     1     3    1
    16     3     4   ar
    17     4     5   ar
    18     5     6   ar
    19     6     7   ar
    20     7     8   ar
    21     8     9   ar
    22     9    13    1
    23    13    14   ar
    24    14    15   ar
    25    15    16   ar
    26    16    17    1
    27    16    18   ar
    28    18    19   ar
    29     9    10   ar
    30    10    11   ar
    31    25    26   ar
    32    26    27    1
    33    26    20   ar
    34    11     3   ar
    35    11     6    1
    36    19    13   ar
    37    28    29    1
    38     7    12    1
@<TRIPOS>MOLECULE
*****
 35 38 0 0 0
SMALL
GASTEIGER

@<TRIPOS>ATOM
      1 C          61.7997   86.0465   11.6081 C.2     1  UNL1        0.2015
      2 O          61.2030   86.0414   12.9841 O.2     1  UNL1       -0.2864
      3 C          61.5465   87.2013   10.6849 C.ar    1  UNL1        0.0611
      4 C          60.6693   87.1817    9.4684 C.ar    1  UNL1        0.1037
      5 N          60.7067   88.5468    8.8479 N.ar    1  UNL1       -0.2269
      6 C          61.6071   89.4102    9.6810 C.ar    1  UNL1        0.1407
      7 N          62.0214   90.8460    9.5524 N.ar    1  UNL1       -0.3374
      8 C          62.9547   91.4503   10.5592 C.ar    1  UNL1        0.0735
      9 C          63.4737   90.6187   11.6946 C.ar    1  UNL1        0.0186
     10 C          63.0594   89.1829   11.8231 C.ar    1  UNL1        0.0047
     11 C          62.1261   88.5786   10.8163 C.ar    1  UNL1        0.0386
     12 H          61.6807   91.3918    8.8072 H       1  UNL1        0.1674
     13 C          64.4071   91.2231   12.7014 C.ar    1  UNL1        0.0207
     14 C          64.5143   90.6305   14.0751 C.ar    1  UNL1        0.0040
     15 C          65.4477   91.2348   15.0820 C.ar    1  UNL1        0.0308
     16 C          66.2738   92.4318   14.7149 C.ar    1  UNL1        0.1384
     17 CL         67.2072   93.0362   15.7217 Cl      1  UNL1       -0.0613
     18 N          66.1666   93.0245   13.3411 N.ar    1  UNL1       -0.2324
     19 C          65.2332   92.4201   12.3344 C.ar    1  UNL1        0.0998
     20 C          63.8009   82.6195   11.6448 C.ar    1  UNL1        0.0920
     21 C          64.3500   82.5969   10.2490 C.ar    1  UNL1        0.0204
     22 C          64.0489   83.7241    9.3063 C.ar    1  UNL1        0.0312
     23 C          63.1989   84.8740    9.7593 C.ar    1  UNL1        0.1454
     24 F          62.8978   86.0012    8.8166 F       1  UNL1       -0.2040
     25 C          62.6499   84.8965   11.1550 C.ar    1  UNL1        0.0951
     26 C          62.9509   83.7693   12.0977 C.ar    1  UNL1        0.1598
     27 F          62.4018   83.7920   13.4935 F       1  UNL1       -0.2026
     28 N          64.1020   81.4922   12.5875 N.pl3   1  UNL1       -0.2166
     29 H          65.0357   81.2370   12.7673 H       1  UNL1        0.1734
     30 S          62.9805   80.7539   13.2561 S.O2    1  UNL1        0.0540
     31 O          63.3652   81.3617   14.5724 O.2     1  UNL1       -0.1545
     32 O          62.5958   80.1462   11.9398 O.2     1  UNL1       -0.1545
     33 C          61.8590   80.0156   13.9247 C.3     1  UNL1        0.1724
     34 C          59.2874   79.9496   14.2891 C.3     1  UNL1        0.0019
     35 C          60.5714   80.7227   14.2283 C.3     1  UNL1        0.0273
@<TRIPOS>BOND
     1    34    35    1
     2    35    33    1
     3    33    30    1
     4    30    31    2
     5    30    32    2
     6    30    28    1
     7    28    20    1
     8    20    21   ar
     9    21    22   ar
    10    22    23   ar
    11    23    24    1
    12    23    25   ar
    13    25     1    1
    14     1     2    2
    15     1     3    1
    16     3     4   ar
    17     4     5   ar
    18     5     6   ar
    19     6     7   ar
    20     7     8   ar
    21     8     9   ar
    22     9    13    1
    23    13    14   ar
    24    14    15   ar
    25    15    16   ar
    26    16    17    1
    27    16    18   ar
    28    18    19   ar
    29     9    10   ar
    30    10    11   ar
    31    25    26   ar
    32    26    27    1
    33    26    20   ar
    34    11     3   ar
    35    11     6    1
    36    19    13   ar
    37    28    29    1
    38     7    12    1
@<TRIPOS>MOLECULE
*****
 35 38 0 0 0
SMALL
GASTEIGER

@<TRIPOS>ATOM
      1 C          60.9953   87.2935    8.8280 C.2     1  UNL1        0.2015
      2 O          60.0918   87.5460    7.6576 O.2     1  UNL1       -0.2864
      3 C          61.8996   86.0968    8.8330 C.ar    1  UNL1        0.0611
      4 C          62.3418   85.3208    7.6279 C.ar    1  UNL1        0.1037
      5 N          63.2360   84.2104    8.0942 N.ar    1  UNL1       -0.2269
      6 C          63.3464   84.3002    9.5875 C.ar    1  UNL1        0.1407
      7 N          64.0924   83.4709   10.5904 N.ar    1  UNL1       -0.3374
      8 C          64.0124   83.8076   12.0499 C.ar    1  UNL1        0.0735
      9 C          63.1864   84.9735   12.5065 C.ar    1  UNL1        0.0186
     10 C          62.4405   85.8027   11.5036 C.ar    1  UNL1        0.0047
     11 C          62.5205   85.4661   10.0441 C.ar    1  UNL1        0.0386
     12 H          64.6345   82.7057   10.2907 H       1  UNL1        0.1674
     13 C          63.1065   85.3101   13.9661 C.ar    1  UNL1        0.0207
     14 C          64.0610   86.3030   14.5602 C.ar    1  UNL1        0.0040
     15 C          63.9810   86.6397   16.0198 C.ar    1  UNL1        0.0308
     16 C          62.9465   85.9834   16.8852 C.ar    1  UNL1        0.1384
     17 CL         62.8665   86.3200   18.3447 Cl      1  UNL1       -0.0613
     18 N          61.9919   84.9904   16.2911 N.ar    1  UNL1       -0.2324
     19 C          62.0719   84.6538   14.8315 C.ar    1  UNL1        0.0998
     20 C          62.2240   89.9778   11.4804 C.ar    1  UNL1        0.0920
     21 C          60.9928   90.1266   12.3242 C.ar    1  UNL1        0.0204
     22 C          59.7625   89.3312   12.0026 C.ar    1  UNL1        0.0312
     23 C          59.7632   88.3868   10.8372 C.ar    1  UNL1        0.1454
     24 F          58.5329   87.5914   10.5156 F       1  UNL1       -0.2040
     25 C          60.9944   88.2379    9.9934 C.ar    1  UNL1        0.0951
     26 C          62.2248   89.0334   10.3150 C.ar    1  UNL1        0.1598
     27 F          63.4560   88.8845    9.4712 F       1  UNL1       -0.2026
     28 N          63.4544   90.7732   11.8020 N.pl3   1  UNL1       -0.2166
     29 H          63.8085   91.4183   11.1479 H       1  UNL1        0.1734
     30 S          64.1453   90.5859   13.1202 S.O2    1  UNL1        0.0540
     31 O          64.3658   92.0666   13.2150 O.2     1  UNL1       -0.1545
     32 O          63.9248   89.1052   13.0253 O.2     1  UNL1       -0.1545
     33 C          64.8362   90.3985   14.4383 C.3     1  UNL1        0.1724
     34 C          63.2278   90.0643   16.4512 C.3     1  UNL1        0.0019
     35 C          64.2046   90.9164   15.6964 C.3     1  UNL1        0.0273
@<TRIPOS>BOND
     1    34    35    1
     2    35    33    1
     3    33    30    1
     4    30    31    2
     5    30    32    2
     6    30    28    1
     7    28    20    1
     8    20    21   ar
     9    21    22   ar
    10    22    23   ar
    11    23    24    1
    12    23    25   ar
    13    25     1    1
    14     1     2    2
    15     1     3    1
    16     3     4   ar
    17     4     5   ar
    18     5     6   ar
    19     6     7   ar
    20     7     8   ar
    21     8     9   ar
    22     9    13    1
    23    13    14   ar
    24    14    15   ar
    25    15    16   ar
    26    16    17    1
    27    16    18   ar
    28    18    19   ar
    29     9    10   ar
    30    10    11   ar
    31    25    26   ar
    32    26    27    1
    33    26    20   ar
    34    11     3   ar
    35    11     6    1
    36    19    13   ar
    37    28    29    1
    38     7    12    1
