@<TRIPOS>MOLECULE
*****
 22 25 0 0 0
SMALL
GASTEIGER

@<TRIPOS>ATOM
      1 O          63.2072   88.1574   12.2212 O.2     1  UNL1       -0.2448
      2 C          62.3995   86.9290   11.9236 C.2     1  UNL1        0.3428
      3 C          61.5195   86.8859   10.7096 C.2     1  UNL1        0.0958
      4 C          60.2077   87.5948   10.5459 C.2     1  UNL1        0.1049
      5 N          59.6743   87.2734    9.1814 N.2     1  UNL1       -0.2476
      6 C          60.6564   86.3658    8.5017 C.2     1  UNL1        0.0645
      7 C          60.6595   85.7266    7.1447 C.3     1  UNL1        0.0836
      8 C          61.8031   84.8479    6.7323 C.2     1  UNL1        0.0414
      9 CL         61.8062   84.2086    5.3753 Cl      1  UNL1       -0.0865
     10 C          62.9435   84.6084    7.6769 C.2     1  UNL1        0.0075
     11 C          62.9403   85.2477    9.0338 C.2     1  UNL1        0.0020
     12 C          61.7968   86.1264    9.4462 C.2     1  UNL1        0.0217
     13 O          62.4718   85.7436   12.8400 O.3     1  UNL1       -0.4454
     14 C          63.4628   84.6494   12.5741 C.3     1  UNL1        0.2087
     15 C          63.0539   83.2142   12.7260 C.3     1  UNL1        0.0445
     16 C          62.4890   82.7291   14.0281 C.3     1  UNL1        0.0210
     17 C          62.0802   81.2939   14.1799 C.3     1  UNL1        0.0722
     18 N          62.2363   80.3438   13.0297 N.3     1  UNL1       -0.2727
     19 C          62.8011   80.8289   11.7276 C.3     1  UNL1        0.0722
     20 C          63.2100   82.2642   11.5757 C.3     1  UNL1        0.0210
     21 C          62.4742   81.1211   12.8989 C.3     1  UNL1        0.0722
     22 C          62.8439   82.4188   12.7615 C.3     1  UNL1        0.0210
@<TRIPOS>BOND
     1     1     2    2
     2     2    13    1
     3    13    14    1
     4    14    15    1
     5    15    16    1
     6    16    17    1
     7    17    18    1
     8    18    19    1
     9    19    20    1
    10    18    21    1
    11    21    22    1
    12     2     3    1
    13     3     4    2
    14     4     5    1
    15     5     6    2
    16     6     7    1
    17     7     8    1
    18     8     9    1
    19     8    10    2
    20    10    11    1
    21    11    12    2
    22    20    15    1
    23    12     3    1
    24    22    15    1
    25    12     6    1
@<TRIPOS>MOLECULE
*****
 22 25 0 0 0
SMALL
GASTEIGER

@<TRIPOS>ATOM
      1 O          60.3607   88.5351   11.8535 O.2     1  UNL1       -0.2448
      2 C          61.6859   88.5038   11.1515 C.2     1  UNL1        0.3428
      3 C          62.5887   89.7007   11.1998 C.2     1  UNL1        0.0958
      4 C          62.7249   90.7460   10.1327 C.2     1  UNL1        0.1049
      5 N          63.7343   91.7537   10.5971 N.2     1  UNL1       -0.2476
      6 C          64.2219   91.3312   11.9513 C.2     1  UNL1        0.0645
      7 C          65.2192   91.9379   12.8932 C.3     1  UNL1        0.0836
      8 C          65.5084   91.2757   14.2077 C.2     1  UNL1        0.0414
      9 CL         66.5057   91.8825   15.1498 Cl      1  UNL1       -0.0865
     10 C          64.8004   90.0069   14.5802 C.2     1  UNL1        0.0075
     11 C          63.8031   89.4002   13.6382 C.2     1  UNL1        0.0020
     12 C          63.5139   90.0623   12.3237 C.2     1  UNL1        0.0217
     13 O          62.1082   87.2755   10.4011 O.3     1  UNL1       -0.4454
     14 C          61.6473   85.9227   10.8567 C.3     1  UNL1        0.2087
     15 C          62.6444   84.8218   11.0655 C.3     1  UNL1        0.0445
     16 C          62.9999   84.3856   12.4560 C.3     1  UNL1        0.0210
     17 C          63.9970   83.2846   12.6648 C.3     1  UNL1        0.0722
     18 N          64.6387   82.6198   11.4831 N.3     1  UNL1       -0.2727
     19 C          64.2831   83.0559   10.0926 C.3     1  UNL1        0.0722
     20 C          63.2860   84.1570    9.8839 C.3     1  UNL1        0.0210
     21 C          64.0979   83.2186   11.3188 C.3     1  UNL1        0.0722
     22 C          63.1962   84.2141   11.1299 C.3     1  UNL1        0.0210
@<TRIPOS>BOND
     1     1     2    2
     2     2    13    1
     3    13    14    1
     4    14    15    1
     5    15    16    1
     6    16    17    1
     7    17    18    1
     8    18    19    1
     9    19    20    1
    10    18    21    1
    11    21    22    1
    12     2     3    1
    13     3     4    2
    14     4     5    1
    15     5     6    2
    16     6     7    1
    17     7     8    1
    18     8     9    1
    19     8    10    2
    20    10    11    1
    21    11    12    2
    22    20    15    1
    23    12     3    1
    24    22    15    1
    25    12     6    1
@<TRIPOS>MOLECULE
*****
 22 25 0 0 0
SMALL
GASTEIGER

@<TRIPOS>ATOM
      1 O          61.3629   84.8183   15.3645 O.2     1  UNL1       -0.2448
      2 C          62.7498   85.1065   14.8715 C.2     1  UNL1        0.3428
      3 C          63.3027   84.3482   13.7014 C.2     1  UNL1        0.0958
      4 C          64.1861   83.1380   13.7728 C.2     1  UNL1        0.1049
      5 N          64.4986   82.7088   12.3700 N.2     1  UNL1       -0.2476
      6 C          63.8083   83.6536   11.4314 C.2     1  UNL1        0.0645
      7 C          63.7573   83.7223    9.9339 C.3     1  UNL1        0.0836
      8 C          62.9671   84.8041    9.2593 C.2     1  UNL1        0.0414
      9 CL         62.9160   84.8728    7.7617 Cl      1  UNL1       -0.0865
     10 C          62.2280   85.8173   10.0821 C.2     1  UNL1        0.0075
     11 C          62.2790   85.7487   11.5797 C.2     1  UNL1        0.0020
     12 C          63.0692   84.6668   12.2543 C.2     1  UNL1        0.0217
     13 O          63.5840   86.1533   15.5487 O.3     1  UNL1       -0.4454
     14 C          64.5974   86.9299   14.7613 C.3     1  UNL1        0.2087
     15 C          64.2482   88.2842   14.2191 C.3     1  UNL1        0.0445
     16 C          63.5703   88.4067   12.8866 C.3     1  UNL1        0.0210
     17 C          63.2212   89.7610   12.3445 C.3     1  UNL1        0.0722
     18 N          63.5498   90.9929   13.1348 N.3     1  UNL1       -0.2727
     19 C          64.2277   90.8704   14.4673 C.3     1  UNL1        0.0722
     20 C          64.5769   89.5160   15.0095 C.3     1  UNL1        0.0210
     21 C          63.7607   90.2723   13.4730 C.3     1  UNL1        0.0722
     22 C          64.0764   89.0478   13.9633 C.3     1  UNL1        0.0210
@<TRIPOS>BOND
     1     1     2    2
     2     2    13    1
     3    13    14    1
     4    14    15    1
     5    15    16    1
     6    16    17    1
     7    17    18    1
     8    18    19    1
     9    19    20    1
    10    18    21    1
    11    21    22    1
    12     2     3    1
    13     3     4    2
    14     4     5    1
    15     5     6    2
    16     6     7    1
    17     7     8    1
    18     8     9    1
    19     8    10    2
    20    10    11    1
    21    11    12    2
    22    20    15    1
    23    12     3    1
    24    22    15    1
    25    12     6    1
@<TRIPOS>MOLECULE
*****
 22 25 0 0 0
SMALL
GASTEIGER

@<TRIPOS>ATOM
      1 O          63.1352   88.2934   12.6579 O.2     1  UNL1       -0.2448
      2 C          62.6624   89.4775   11.8678 C.2     1  UNL1        0.3428
      3 C          63.5599   90.6657   11.6874 C.2     1  UNL1        0.0958
      4 C          63.6962   91.4863   10.4392 C.2     1  UNL1        0.1049
      5 N          64.6994   92.5696   10.7040 N.2     1  UNL1       -0.2476
      6 C          65.1830   92.4186   12.1158 C.2     1  UNL1        0.0645
      7 C          66.1737   93.2005   12.9264 C.3     1  UNL1        0.0836
      8 C          66.4601   92.8057   14.3449 C.2     1  UNL1        0.0414
      9 CL         67.4508   93.5877   15.1556 Cl      1  UNL1       -0.0865
     10 C          65.7559   91.6290   14.9527 C.2     1  UNL1        0.0075
     11 C          64.7653   90.8471   14.1421 C.2     1  UNL1        0.0020
     12 C          64.4788   91.2419   12.7236 C.2     1  UNL1        0.0217
     13 O          61.2918   89.4734   11.2581 O.3     1  UNL1       -0.4454
     14 C          60.5409   88.1834   11.1094 C.3     1  UNL1        0.2087
     15 C          60.7574   87.3251    9.8985 C.3     1  UNL1        0.0445
     16 C          62.0625   86.6105    9.7092 C.3     1  UNL1        0.0210
     17 C          62.2789   85.7521    8.4982 C.3     1  UNL1        0.0722
     18 N          61.1901   85.6084    7.4765 N.3     1  UNL1       -0.2727
     19 C          59.8849   86.3230    7.6658 C.3     1  UNL1        0.0722
     20 C          59.6685   87.1813    8.8768 C.3     1  UNL1        0.0210
     21 C          61.0251   86.0897    8.1238 C.3     1  UNL1        0.0722
     22 C          60.8294   86.8659    9.2188 C.3     1  UNL1        0.0210
@<TRIPOS>BOND
     1     1     2    2
     2     2    13    1
     3    13    14    1
     4    14    15    1
     5    15    16    1
     6    16    17    1
     7    17    18    1
     8    18    19    1
     9    19    20    1
    10    18    21    1
    11    21    22    1
    12     2     3    1
    13     3     4    2
    14     4     5    1
    15     5     6    2
    16     6     7    1
    17     7     8    1
    18     8     9    1
    19     8    10    2
    20    10    11    1
    21    11    12    2
    22    20    15    1
    23    12     3    1
    24    22    15    1
    25    12     6    1
@<TRIPOS>MOLECULE
*****
 22 25 0 0 0
SMALL
GASTEIGER

@<TRIPOS>ATOM
      1 O          60.6719   89.4150   12.4816 O.2     1  UNL1       -0.2448
      2 C          61.4095   89.7126   11.2099 C.2     1  UNL1        0.3428
      3 C          62.6344   90.5780   11.2382 C.2     1  UNL1        0.0958
      4 C          63.1253   91.4480   10.1193 C.2     1  UNL1        0.1049
      5 N          64.3777   92.1330   10.5800 N.2     1  UNL1       -0.2476
      6 C          64.6608   91.6864   11.9837 C.2     1  UNL1        0.0645
      7 C          65.7605   92.0306   12.9439 C.3     1  UNL1        0.0836
      8 C          65.7828   91.4138   14.3110 C.2     1  UNL1        0.0414
      9 CL         66.8825   91.7580   15.2713 Cl      1  UNL1       -0.0865
     10 C          64.7053   90.4527   14.7178 C.2     1  UNL1        0.0075
     11 C          63.6057   90.1085   13.7576 C.2     1  UNL1        0.0020
     12 C          63.5834   90.7253   12.3905 C.2     1  UNL1        0.0217
     13 O          60.9222   89.1449    9.9098 O.3     1  UNL1       -0.4454
     14 C          60.4301   87.7292    9.8471 C.3     1  UNL1        0.2087
     15 C          61.4020   86.5920    9.9565 C.3     1  UNL1        0.0445
     16 C          61.6456   85.9387   11.2846 C.3     1  UNL1        0.0210
     17 C          62.6175   84.8014   11.3940 C.3     1  UNL1        0.0722
     18 N          63.3458   84.3173   10.1753 N.3     1  UNL1       -0.2727
     19 C          63.1022   84.9706    8.8472 C.3     1  UNL1        0.0722
     20 C          62.1303   86.1079    8.7378 C.3     1  UNL1        0.0210
     21 C          62.8227   84.9438   10.0659 C.3     1  UNL1        0.0722
     22 C          61.9439   85.9721    9.9669 C.3     1  UNL1        0.0210
@<TRIPOS>BOND
     1     1     2    2
     2     2    13    1
     3    13    14    1
     4    14    15    1
     5    15    16    1
     6    16    17    1
     7    17    18    1
     8    18    19    1
     9    19    20    1
    10    18    21    1
    11    21    22    1
    12     2     3    1
    13     3     4    2
    14     4     5    1
    15     5     6    2
    16     6     7    1
    17     7     8    1
    18     8     9    1
    19     8    10    2
    20    10    11    1
    21    11    12    2
    22    20    15    1
    23    12     3    1
    24    22    15    1
    25    12     6    1
@<TRIPOS>MOLECULE
*****
 22 25 0 0 0
SMALL
GASTEIGER

@<TRIPOS>ATOM
      1 O          62.5379   85.6647    9.8994 O.2     1  UNL1       -0.2448
      2 C          62.3117   86.3832   11.1965 C.2     1  UNL1        0.3428
      3 C          62.5037   87.8688   11.2744 C.2     1  UNL1        0.0958
      4 C          62.0168   88.8745   10.2736 C.2     1  UNL1        0.1049
      5 N          62.4285   90.2368   10.7476 N.2     1  UNL1       -0.2476
      6 C          63.1699   90.0731   12.0413 C.2     1  UNL1        0.0645
      7 C          63.8086   91.0676   12.9648 C.3     1  UNL1        0.0836
      8 C          64.4938   90.5985   14.2140 C.2     1  UNL1        0.0414
      9 CL         65.1325   91.5930   15.1376 Cl      1  UNL1       -0.0865
     10 C          64.5403   89.1351   14.5396 C.2     1  UNL1        0.0075
     11 C          63.9015   88.1406   13.6161 C.2     1  UNL1        0.0020
     12 C          63.2163   88.6096   12.3669 C.2     1  UNL1        0.0217
     13 O          61.8936   85.6160   12.4158 O.3     1  UNL1       -0.4454
     14 C          62.8741   84.7173   13.1093 C.3     1  UNL1        0.2087
     15 C          62.7253   83.2280   13.0119 C.3     1  UNL1        0.0445
     16 C          63.1361   82.5135   11.7586 C.3     1  UNL1        0.0210
     17 C          62.9872   81.0241   11.6612 C.3     1  UNL1        0.0722
     18 N          62.4275   80.2491   12.8171 N.3     1  UNL1       -0.2727
     19 C          62.0167   80.9635   14.0704 C.3     1  UNL1        0.0722
     20 C          62.1656   82.4530   14.1678 C.3     1  UNL1        0.0210
     21 C          62.4903   81.0640   12.9172 C.3     1  UNL1        0.0722
     22 C          62.6248   82.4107   13.0054 C.3     1  UNL1        0.0210
@<TRIPOS>BOND
     1     1     2    2
     2     2    13    1
     3    13    14    1
     4    14    15    1
     5    15    16    1
     6    16    17    1
     7    17    18    1
     8    18    19    1
     9    19    20    1
    10    18    21    1
    11    21    22    1
    12     2     3    1
    13     3     4    2
    14     4     5    1
    15     5     6    2
    16     6     7    1
    17     7     8    1
    18     8     9    1
    19     8    10    2
    20    10    11    1
    21    11    12    2
    22    20    15    1
    23    12     3    1
    24    22    15    1
    25    12     6    1
@<TRIPOS>MOLECULE
*****
 22 25 0 0 0
SMALL
GASTEIGER

@<TRIPOS>ATOM
      1 O          64.9243   82.7388   10.5555 O.2     1  UNL1       -0.2448
      2 C          63.7537   83.5483   11.0290 C.2     1  UNL1        0.3428
      3 C          63.1806   83.3106   12.3947 C.2     1  UNL1        0.0958
      4 C          62.3790   82.1158   12.8188 C.2     1  UNL1        0.1049
      5 N          62.0116   82.2929   14.2622 N.2     1  UNL1       -0.2476
      6 C          62.5861   83.5971   14.7302 C.2     1  UNL1        0.0645
      7 C          62.5446   84.2932   16.0583 C.3     1  UNL1        0.0836
      8 C          63.2257   85.6183   16.2320 C.2     1  UNL1        0.0414
      9 CL         63.1843   86.3144   17.5601 Cl      1  UNL1       -0.0865
     10 C          63.9482   86.2473   15.0778 C.2     1  UNL1        0.0075
     11 C          63.9897   85.5512   13.7498 C.2     1  UNL1        0.0020
     12 C          63.3086   84.2261   13.5760 C.2     1  UNL1        0.0217
     13 O          63.1560   84.5955   10.1366 O.3     1  UNL1       -0.4454
     14 C          61.8688   85.2628   10.5211 C.3     1  UNL1        0.2087
     15 C          61.6863   86.7327   10.2848 C.3     1  UNL1        0.0445
     16 C          62.4519   87.7255   11.1083 C.3     1  UNL1        0.0210
     17 C          62.2693   89.1955   10.8719 C.3     1  UNL1        0.0722
     18 N          61.3212   89.6727    9.8120 N.3     1  UNL1       -0.2727
     19 C          60.5556   88.6799    8.9885 C.3     1  UNL1        0.0722
     20 C          60.7381   87.2099    9.2249 C.3     1  UNL1        0.0210
     21 C          61.3879   88.8573    9.9050 C.3     1  UNL1        0.0722
     22 C          61.5529   87.5281   10.1186 C.3     1  UNL1        0.0210
@<TRIPOS>BOND
     1     1     2    2
     2     2    13    1
     3    13    14    1
     4    14    15    1
     5    15    16    1
     6    16    17    1
     7    17    18    1
     8    18    19    1
     9    19    20    1
    10    18    21    1
    11    21    22    1
    12     2     3    1
    13     3     4    2
    14     4     5    1
    15     5     6    2
    16     6     7    1
    17     7     8    1
    18     8     9    1
    19     8    10    2
    20    10    11    1
    21    11    12    2
    22    20    15    1
    23    12     3    1
    24    22    15    1
    25    12     6    1
@<TRIPOS>MOLECULE
*****
 22 25 0 0 0
SMALL
GASTEIGER

@<TRIPOS>ATOM
      1 O          64.1056   91.6398   11.2065 O.2     1  UNL1       -0.2448
      2 C          63.6369   90.8016   12.3587 C.2     1  UNL1        0.3428
      3 C          63.1596   89.3995   12.1209 C.2     1  UNL1        0.0958
      4 C          63.5680   88.1850   12.9007 C.2     1  UNL1        0.1049
      5 N          62.8509   87.0008   12.3234 N.2     1  UNL1       -0.2476
      6 C          61.9993   87.4834   11.1868 C.2     1  UNL1        0.0645
      7 C          61.0747   86.7645   10.2496 C.3     1  UNL1        0.0836
      8 C          60.3410   87.5281    9.1873 C.2     1  UNL1        0.0414
      9 CL         59.4164   86.8092    8.2501 Cl      1  UNL1       -0.0865
     10 C          60.5318   89.0107    9.0622 C.2     1  UNL1        0.0075
     11 C          61.4563   89.7296    9.9994 C.2     1  UNL1        0.0020
     12 C          62.1901   88.9660   11.0617 C.2     1  UNL1        0.0217
     13 O          63.6454   91.3654   13.7487 O.3     1  UNL1       -0.4454
     14 C          64.6857   90.9188   14.7328 C.3     1  UNL1        0.2087
     15 C          66.0078   91.6242   14.7984 C.3     1  UNL1        0.0445
     16 C          67.0268   91.4096   13.7188 C.3     1  UNL1        0.0210
     17 C          68.3490   92.1150   13.7845 C.3     1  UNL1        0.0722
     18 N          68.6522   93.0351   14.9298 N.3     1  UNL1       -0.2727
     19 C          67.6332   93.2497   16.0094 C.3     1  UNL1        0.0722
     20 C          66.3109   92.5442   15.9437 C.3     1  UNL1        0.0210
     21 C          67.9138   92.6706   14.9369 C.3     1  UNL1        0.0722
     22 C          66.7183   92.0327   14.8777 C.3     1  UNL1        0.0210
@<TRIPOS>BOND
     1     1     2    2
     2     2    13    1
     3    13    14    1
     4    14    15    1
     5    15    16    1
     6    16    17    1
     7    17    18    1
     8    18    19    1
     9    19    20    1
    10    18    21    1
    11    21    22    1
    12     2     3    1
    13     3     4    2
    14     4     5    1
    15     5     6    2
    16     6     7    1
    17     7     8    1
    18     8     9    1
    19     8    10    2
    20    10    11    1
    21    11    12    2
    22    20    15    1
    23    12     3    1
    24    22    15    1
    25    12     6    1
@<TRIPOS>MOLECULE
*****
 22 25 0 0 0
SMALL
GASTEIGER

@<TRIPOS>ATOM
      1 O          60.5441   87.3416   11.5192 O.2     1  UNL1       -0.2448
      2 C          61.5030   87.3205   10.3661 C.2     1  UNL1        0.3428
      3 C          62.2475   86.0618   10.0325 C.2     1  UNL1        0.0958
      4 C          62.7228   85.6534    8.6697 C.2     1  UNL1        0.1049
      5 N          63.4164   84.3296    8.7981 N.2     1  UNL1       -0.2476
      6 C          63.3697   83.9198   10.2403 C.2     1  UNL1        0.0645
      7 C          63.8917   82.7102   10.9574 C.3     1  UNL1        0.0836
      8 C          63.6912   82.5711   12.4374 C.2     1  UNL1        0.0414
      9 CL         64.2132   81.3614   13.1546 Cl      1  UNL1       -0.0865
     10 C          62.9688   83.6416   13.2003 C.2     1  UNL1        0.0075
     11 C          62.4468   84.8512   12.4832 C.2     1  UNL1        0.0020
     12 C          62.6473   84.9903   11.0032 C.2     1  UNL1        0.0217
     13 O          61.7176   88.5584    9.5465 O.3     1  UNL1       -0.4454
     14 C          61.5356   89.9110   10.1689 C.3     1  UNL1        0.2087
     15 C          62.6714   90.5562   10.9062 C.3     1  UNL1        0.0445
     16 C          63.5537   91.5468   10.2060 C.3     1  UNL1        0.0210
     17 C          64.6895   92.1920   10.9434 C.3     1  UNL1        0.0722
     18 N          64.9431   91.8466   12.3809 N.3     1  UNL1       -0.2727
     19 C          64.0608   90.8559   13.0811 C.3     1  UNL1        0.0722
     20 C          62.9249   90.2107   12.3437 C.3     1  UNL1        0.0210
     21 C          64.3085   91.4671   12.0184 C.3     1  UNL1        0.0722
     22 C          63.2815   90.8837   11.3517 C.3     1  UNL1        0.0210
@<TRIPOS>BOND
     1     1     2    2
     2     2    13    1
     3    13    14    1
     4    14    15    1
     5    15    16    1
     6    16    17    1
     7    17    18    1
     8    18    19    1
     9    19    20    1
    10    18    21    1
    11    21    22    1
    12     2     3    1
    13     3     4    2
    14     4     5    1
    15     5     6    2
    16     6     7    1
    17     7     8    1
    18     8     9    1
    19     8    10    2
    20    10    11    1
    21    11    12    2
    22    20    15    1
    23    12     3    1
    24    22    15    1
    25    12     6    1
