@<TRIPOS>MOLECULE
*****
 20 21 0 0 0
SMALL
GASTEIGER

@<TRIPOS>ATOM
      1 C          60.3596   88.9335    9.7738 C.ar    1  UNL1        0.1724
      2 C          59.7890   88.5149    8.4512 C.ar    1  UNL1        0.0400
      3 C          59.9630   87.1042    7.9719 C.ar    1  UNL1        0.0033
      4 C          60.7075   86.1121    8.8153 C.ar    1  UNL1        0.0032
      5 C          61.2781   86.5306   10.1378 C.ar    1  UNL1        0.0371
      6 C          61.1041   87.9413   10.6171 C.ar    1  UNL1        0.1723
      7 C          59.3307   90.6289   11.4521 C.3     1  UNL1        0.2526
      8 O          60.1856   90.3442   10.2530 O.3     1  UNL1       -0.4684
      9 C          62.0226   85.5384   10.9813 C.2     1  UNL1        0.0064
     10 C          62.8710   84.4871   10.3294 C.2     1  UNL1        0.0436
     11 C          63.6156   83.4949   11.1728 C.2     1  UNL1        0.2111
     12 O          64.9265   82.9415   10.6983 O.2     1  UNL1       -0.2850
     13 C          63.0492   83.0562   12.4907 C.ar    1  UNL1        0.0961
     14 C          62.2584   81.8059   12.7381 C.ar    1  UNL1        0.0218
     15 C          61.8946   81.7677   14.1928 C.ar    1  UNL1        0.0200
     16 C          62.4606   82.9945   14.8445 C.ar    1  UNL1        0.0725
     17 N          63.1742   83.7908   13.7925 N.ar    1  UNL1       -0.3495
     18 H          63.6424   84.6455   13.9320 H       1  UNL1        0.1661
     19 O          61.6747   88.3598   11.9397 O.3     1  UNL1       -0.4684
     20 C          62.9797   89.0974   11.9939 C.3     1  UNL1        0.2526
@<TRIPOS>BOND
     1     7     8    1
     2     8     1    1
     3     1     2   ar
     4     2     3   ar
     5     3     4   ar
     6     4     5   ar
     7     5     9    1
     8     9    10    2
     9    10    11    1
    10    11    12    2
    11    11    13    1
    12    13    14   ar
    13    14    15   ar
    14    15    16   ar
    15    16    17   ar
    16     5     6   ar
    17     6    19    1
    18    19    20    1
    19     6     1   ar
    20    17    13   ar
    21    17    18    1
@<TRIPOS>MOLECULE
*****
 20 21 0 0 0
SMALL
GASTEIGER

@<TRIPOS>ATOM
      1 C          65.1648   91.9278   13.2097 C.ar    1  UNL1        0.1724
      2 C          65.6450   92.7535   12.0532 C.ar    1  UNL1        0.0400
      3 C          64.9967   92.6093   10.7082 C.ar    1  UNL1        0.0033
      4 C          63.8681   91.6394   10.5198 C.ar    1  UNL1        0.0032
      5 C          63.3879   90.8136   11.6763 C.ar    1  UNL1        0.0371
      6 C          64.0363   90.9578   13.0212 C.ar    1  UNL1        0.1723
      7 C          67.2157   91.5845   14.7672 C.3     1  UNL1        0.2526
      8 O          65.8132   92.0720   14.5546 O.3     1  UNL1       -0.4684
      9 C          62.2593   89.8437   11.4879 C.2     1  UNL1        0.0064
     10 C          62.5116   88.5172   10.8345 C.2     1  UNL1        0.0436
     11 C          61.3829   87.5472   10.6461 C.2     1  UNL1        0.2111
     12 O          61.1005   86.5124   11.6946 O.2     1  UNL1       -0.2850
     13 C          60.5368   87.6121    9.4093 C.ar    1  UNL1        0.0961
     14 C          60.1410   88.8595    8.6763 C.ar    1  UNL1        0.0218
     15 C          59.2975   88.4594    7.5022 C.ar    1  UNL1        0.0200
     16 C          59.1720   86.9646    7.5096 C.ar    1  UNL1        0.0725
     17 N          59.9379   86.4410    8.6882 N.ar    1  UNL1       -0.3495
     18 H          60.0312   85.4948    8.9437 H       1  UNL1        0.1661
     19 O          63.5560   90.1320   14.1777 O.3     1  UNL1       -0.4684
     20 C          64.2625   88.8577   14.5339 C.3     1  UNL1        0.2526
@<TRIPOS>BOND
     1     7     8    1
     2     8     1    1
     3     1     2   ar
     4     2     3   ar
     5     3     4   ar
     6     4     5   ar
     7     5     9    1
     8     9    10    2
     9    10    11    1
    10    11    12    2
    11    11    13    1
    12    13    14   ar
    13    14    15   ar
    14    15    16   ar
    15    16    17   ar
    16     5     6   ar
    17     6    19    1
    18    19    20    1
    19     6     1   ar
    20    17    13   ar
    21    17    18    1
@<TRIPOS>MOLECULE
*****
 20 21 0 0 0
SMALL
GASTEIGER

@<TRIPOS>ATOM
      1 C          63.5144   82.1689   12.4248 C.ar    1  UNL1        0.1724
      2 C          64.0505   81.8282   11.0660 C.ar    1  UNL1        0.0400
      3 C          64.0276   82.8541    9.9719 C.ar    1  UNL1        0.0033
      4 C          63.4687   84.2207   10.2366 C.ar    1  UNL1        0.0032
      5 C          62.9326   84.5613   11.5955 C.ar    1  UNL1        0.0371
      6 C          62.9555   83.5354   12.6896 C.ar    1  UNL1        0.1723
      7 C          62.3460   80.2596   13.7437 C.3     1  UNL1        0.2526
      8 O          63.5372   81.1430   13.5189 O.3     1  UNL1       -0.4684
      9 C          62.3737   85.9279   11.8603 C.2     1  UNL1        0.0064
     10 C          61.7801   86.7259   10.7375 C.2     1  UNL1        0.0436
     11 C          61.2211   88.0926   11.0023 C.2     1  UNL1        0.2111
     12 O          59.7404   88.3229   10.9366 O.2     1  UNL1       -0.2850
     13 C          62.1429   89.2288   11.3328 C.ar    1  UNL1        0.0961
     14 C          62.6885   90.2327   10.3611 C.ar    1  UNL1        0.0218
     15 C          63.5638   91.1850   11.1207 C.ar    1  UNL1        0.0200
     16 C          63.5592   90.7695   12.5621 C.ar    1  UNL1        0.0725
     17 N          62.6810   89.5605   12.6931 N.ar    1  UNL1       -0.3495
     18 H          62.4912   89.0707   13.5258 H       1  UNL1        0.1661
     19 O          62.4193   83.8762   14.0485 O.3     1  UNL1       -0.4684
     20 C          63.3580   84.2893   15.1431 C.3     1  UNL1        0.2526
@<TRIPOS>BOND
     1     7     8    1
     2     8     1    1
     3     1     2   ar
     4     2     3   ar
     5     3     4   ar
     6     4     5   ar
     7     5     9    1
     8     9    10    2
     9    10    11    1
    10    11    12    2
    11    11    13    1
    12    13    14   ar
    13    14    15   ar
    14    15    16   ar
    15    16    17   ar
    16     5     6   ar
    17     6    19    1
    18    19    20    1
    19     6     1   ar
    20    17    13   ar
    21    17    18    1
@<TRIPOS>MOLECULE
*****
 20 21 0 0 0
SMALL
GASTEIGER

@<TRIPOS>ATOM
      1 C          60.1525   88.3150    8.7737 C.ar    1  UNL1        0.1724
      2 C          60.6494   89.4247    9.6521 C.ar    1  UNL1        0.0400
      3 C          61.7195   89.1551   10.6681 C.ar    1  UNL1        0.0033
      4 C          62.2927   87.7758   10.8057 C.ar    1  UNL1        0.0032
      5 C          61.7959   86.6661    9.9272 C.ar    1  UNL1        0.0371
      6 C          60.7258   86.9357    8.9112 C.ar    1  UNL1        0.1723
      7 C          59.3684   89.4762    6.5859 C.3     1  UNL1        0.2526
      8 O          59.0825   88.5846    7.7577 O.3     1  UNL1       -0.4684
      9 C          62.3691   85.2868   10.0647 C.2     1  UNL1        0.0064
     10 C          62.9931   84.8596   11.3602 C.2     1  UNL1        0.0436
     11 C          63.5663   83.4802   11.4977 C.2     1  UNL1        0.2111
     12 O          64.7794   83.0899   10.7065 O.2     1  UNL1       -0.2850
     13 C          62.9264   82.4913   12.4263 C.ar    1  UNL1        0.0961
     14 C          62.8147   81.0129   12.1990 C.ar    1  UNL1        0.0218
     15 C          62.1051   80.4149   13.3775 C.ar    1  UNL1        0.0200
     16 C          61.7783   81.5239   14.3333 C.ar    1  UNL1        0.0725
     17 N          62.2859   82.8071   13.7454 N.ar    1  UNL1       -0.3495
     18 H          62.2116   83.6999   14.1537 H       1  UNL1        0.1661
     19 O          60.2289   85.8260    8.0328 O.3     1  UNL1       -0.4684
     20 C          61.0801   85.3247    6.9039 C.3     1  UNL1        0.2526
@<TRIPOS>BOND
     1     7     8    1
     2     8     1    1
     3     1     2   ar
     4     2     3   ar
     5     3     4   ar
     6     4     5   ar
     7     5     9    1
     8     9    10    2
     9    10    11    1
    10    11    12    2
    11    11    13    1
    12    13    14   ar
    13    14    15   ar
    14    15    16   ar
    15    16    17   ar
    16     5     6   ar
    17     6    19    1
    18    19    20    1
    19     6     1   ar
    20    17    13   ar
    21    17    18    1
@<TRIPOS>MOLECULE
*****
 20 21 0 0 0
SMALL
GASTEIGER

@<TRIPOS>ATOM
      1 C          63.5064   82.3971   12.8159 C.ar    1  UNL1        0.1724
      2 C          64.1782   81.8367   11.5975 C.ar    1  UNL1        0.0400
      3 C          64.2359   82.6440   10.3346 C.ar    1  UNL1        0.0033
      4 C          63.6218   84.0117   10.2901 C.ar    1  UNL1        0.0032
      5 C          62.9500   84.5722   11.5085 C.ar    1  UNL1        0.0371
      6 C          62.8923   83.7649   12.7714 C.ar    1  UNL1        0.1723
      7 C          62.5135   80.4215   14.1801 C.3     1  UNL1        0.2526
      8 O          63.4488   81.5898   14.0788 O.3     1  UNL1       -0.4684
      9 C          62.3358   85.9400   11.4641 C.2     1  UNL1        0.0064
     10 C          61.1962   86.2205   10.5300 C.2     1  UNL1        0.0436
     11 C          60.5820   87.5883   10.4856 C.2     1  UNL1        0.2111
     12 O          60.4708   88.4016   11.7410 O.2     1  UNL1       -0.2850
     13 C          60.0791   88.1427    9.1857 C.ar    1  UNL1        0.0961
     14 C          59.2581   87.4039    8.1708 C.ar    1  UNL1        0.0218
     15 C          58.9804   88.3378    7.0304 C.ar    1  UNL1        0.0200
     16 C          59.6299   89.6540    7.3404 C.ar    1  UNL1        0.0725
     17 N          60.3089   89.5334    8.6725 N.ar    1  UNL1       -0.3495
     18 H          60.8162   90.2424    9.1297 H       1  UNL1        0.1661
     19 O          62.2205   84.3254   13.9899 O.3     1  UNL1       -0.4684
     20 C          63.0420   84.7496   15.1710 C.3     1  UNL1        0.2526
@<TRIPOS>BOND
     1     7     8    1
     2     8     1    1
     3     1     2   ar
     4     2     3   ar
     5     3     4   ar
     6     4     5   ar
     7     5     9    1
     8     9    10    2
     9    10    11    1
    10    11    12    2
    11    11    13    1
    12    13    14   ar
    13    14    15   ar
    14    15    16   ar
    15    16    17   ar
    16     5     6   ar
    17     6    19    1
    18    19    20    1
    19     6     1   ar
    20    17    13   ar
    21    17    18    1
@<TRIPOS>MOLECULE
*****
 20 21 0 0 0
SMALL
GASTEIGER

@<TRIPOS>ATOM
      1 C          61.3345   86.4014    8.8288 C.ar    1  UNL1        0.1724
      2 C          62.1770   85.6050    7.8771 C.ar    1  UNL1        0.0400
      3 C          63.1859   84.6287    8.4053 C.ar    1  UNL1        0.0033
      4 C          63.3523   84.4488    9.8851 C.ar    1  UNL1        0.0032
      5 C          62.5098   85.2453   10.8368 C.ar    1  UNL1        0.0371
      6 C          61.5009   86.2216   10.3086 C.ar    1  UNL1        0.1723
      7 C          58.9381   86.9157    7.9669 C.3     1  UNL1        0.2526
      8 O          60.3256   87.3777    8.3007 O.3     1  UNL1       -0.4684
      9 C          62.6762   85.0655   12.3167 C.2     1  UNL1        0.0064
     10 C          63.0226   83.7167   12.8741 C.2     1  UNL1        0.0436
     11 C          63.1890   83.5369   14.3540 C.2     1  UNL1        0.2111
     12 O          63.3885   82.1642   14.9249 O.2     1  UNL1       -0.2850
     13 C          63.1558   84.7297   15.2628 C.ar    1  UNL1        0.0961
     14 C          64.1497   85.8530   15.2799 C.ar    1  UNL1        0.0218
     15 C          63.7311   86.8262   16.3418 C.ar    1  UNL1        0.0200
     16 C          62.4785   86.3043   16.9811 C.ar    1  UNL1        0.0725
     17 N          62.1230   85.0086   16.3142 N.ar    1  UNL1       -0.3495
     18 H          61.3478   84.4409   16.5289 H       1  UNL1        0.1661
     19 O          60.6584   87.0181   11.2604 O.3     1  UNL1       -0.4684
     20 C          60.8076   88.5092   11.3267 C.3     1  UNL1        0.2526
@<TRIPOS>BOND
     1     7     8    1
     2     8     1    1
     3     1     2   ar
     4     2     3   ar
     5     3     4   ar
     6     4     5   ar
     7     5     9    1
     8     9    10    2
     9    10    11    1
    10    11    12    2
    11    11    13    1
    12    13    14   ar
    13    14    15   ar
    14    15    16   ar
    15    16    17   ar
    16     5     6   ar
    17     6    19    1
    18    19    20    1
    19     6     1   ar
    20    17    13   ar
    21    17    18    1
@<TRIPOS>MOLECULE
*****
 20 21 0 0 0
SMALL
GASTEIGER

@<TRIPOS>ATOM
      1 C          63.8410   82.6201   13.6286 C.ar    1  UNL1        0.1724
      2 C          64.2392   83.0964   14.9940 C.ar    1  UNL1        0.0400
      3 C          64.1477   84.5540   15.3362 C.ar    1  UNL1        0.0033
      4 C          63.6578   85.5353   14.3130 C.ar    1  UNL1        0.0032
      5 C          63.2596   85.0590   12.9475 C.ar    1  UNL1        0.0371
      6 C          63.3511   83.6014   12.6053 C.ar    1  UNL1        0.1723
      7 C          62.7020   80.3055   13.3203 C.3     1  UNL1        0.2526
      8 O          63.9325   81.1626   13.2864 O.3     1  UNL1       -0.4684
      9 C          62.7697   86.0403   11.9242 C.2     1  UNL1        0.0064
     10 C          61.4880   85.7808   11.1895 C.2     1  UNL1        0.0436
     11 C          60.9981   86.7621   10.1662 C.2     1  UNL1        0.2111
     12 O          61.0097   86.3971    8.7113 O.2     1  UNL1       -0.2850
     13 C          60.4966   88.1083   10.5977 C.ar    1  UNL1        0.0961
     14 C          60.6866   89.3988    9.8572 C.ar    1  UNL1        0.0218
     15 C          60.0246   90.4884   10.6474 C.ar    1  UNL1        0.0200
     16 C          59.4253   89.8713   11.8763 C.ar    1  UNL1        0.0725
     17 N          59.7171   88.4003   11.8456 N.ar    1  UNL1       -0.3495
     18 H          59.4448   87.7420   12.5251 H       1  UNL1        0.1661
     19 O          62.9528   83.1252   11.2398 O.3     1  UNL1       -0.4684
     20 C          63.9870   82.9884   10.1620 C.3     1  UNL1        0.2526
@<TRIPOS>BOND
     1     7     8    1
     2     8     1    1
     3     1     2   ar
     4     2     3   ar
     5     3     4   ar
     6     4     5   ar
     7     5     9    1
     8     9    10    2
     9    10    11    1
    10    11    12    2
    11    11    13    1
    12    13    14   ar
    13    14    15   ar
    14    15    16   ar
    15    16    17   ar
    16     5     6   ar
    17     6    19    1
    18    19    20    1
    19     6     1   ar
    20    17    13   ar
    21    17    18    1
@<TRIPOS>MOLECULE
*****
 20 21 0 0 0
SMALL
GASTEIGER

@<TRIPOS>ATOM
      1 C          63.4815   82.6289   13.9640 C.ar    1  UNL1        0.1724
      2 C          63.9618   83.3479   15.1897 C.ar    1  UNL1        0.0400
      3 C          64.1155   84.8399   15.1721 C.ar    1  UNL1        0.0033
      4 C          63.7889   85.6129   13.9288 C.ar    1  UNL1        0.0032
      5 C          63.3086   84.8939   12.7031 C.ar    1  UNL1        0.0371
      6 C          63.1549   83.4019   12.7207 C.ar    1  UNL1        0.1723
      7 C          61.9614   80.5228   13.9057 C.3     1  UNL1        0.2526
      8 O          63.3277   81.1369   13.9816 O.3     1  UNL1       -0.4684
      9 C          62.9820   85.6669   11.4598 C.2     1  UNL1        0.0064
     10 C          62.3032   87.0006   11.5624 C.2     1  UNL1        0.0436
     11 C          61.9766   87.7736   10.3191 C.2     1  UNL1        0.2111
     12 O          62.5849   89.1264   10.0955 O.2     1  UNL1       -0.2850
     13 C          61.0417   87.1938    9.2994 C.ar    1  UNL1        0.0961
     14 C          61.3670   86.0997    8.3262 C.ar    1  UNL1        0.0218
     15 C          60.1438   85.8360    7.4992 C.ar    1  UNL1        0.0200
     16 C          59.0623   86.7672    7.9612 C.ar    1  UNL1        0.0725
     17 N          59.6173   87.6064    9.0737 N.ar    1  UNL1       -0.3495
     18 H          59.1319   88.3052    9.5690 H       1  UNL1        0.1661
     19 O          62.6745   82.6829   11.4950 O.3     1  UNL1       -0.4684
     20 C          63.6648   82.1348   10.5107 C.3     1  UNL1        0.2526
@<TRIPOS>BOND
     1     7     8    1
     2     8     1    1
     3     1     2   ar
     4     2     3   ar
     5     3     4   ar
     6     4     5   ar
     7     5     9    1
     8     9    10    2
     9    10    11    1
    10    11    12    2
    11    11    13    1
    12    13    14   ar
    13    14    15   ar
    14    15    16   ar
    15    16    17   ar
    16     5     6   ar
    17     6    19    1
    18    19    20    1
    19     6     1   ar
    20    17    13   ar
    21    17    18    1
@<TRIPOS>MOLECULE
*****
 20 21 0 0 0
SMALL
GASTEIGER

@<TRIPOS>ATOM
      1 C          61.5746   86.7532    9.7254 C.ar    1  UNL1        0.1724
      2 C          61.9132   85.4415   10.3693 C.ar    1  UNL1        0.0400
      3 C          62.6548   85.4152   11.6729 C.ar    1  UNL1        0.0033
      4 C          63.0578   86.7006   12.3326 C.ar    1  UNL1        0.0032
      5 C          62.7193   88.0123   11.6887 C.ar    1  UNL1        0.0371
      6 C          61.9777   88.0387   10.3851 C.ar    1  UNL1        0.1723
      7 C          59.3390   86.9125    8.4115 C.3     1  UNL1        0.2526
      8 O          60.8330   86.7796    8.4219 O.3     1  UNL1       -0.4684
      9 C          63.1223   89.2979   12.3484 C.2     1  UNL1        0.0064
     10 C          63.7455   89.2776   13.7126 C.2     1  UNL1        0.0436
     11 C          64.1485   90.5631   14.3723 C.2     1  UNL1        0.2111
     12 O          63.3296   91.1157   15.5010 O.2     1  UNL1       -0.2850
     13 C          65.3704   91.2958   13.9032 C.ar    1  UNL1        0.0961
     14 C          65.4638   92.1643   12.6838 C.ar    1  UNL1        0.0218
     15 C          66.8645   92.6940   12.5982 C.ar    1  UNL1        0.0200
     16 C          67.6369   92.1530   13.7647 C.ar    1  UNL1        0.0725
     17 N          66.7134   91.2889   14.5713 N.ar    1  UNL1       -0.3495
     18 H          66.9477   90.8025   15.3946 H       1  UNL1        0.1661
     19 O          61.6391   89.3505    9.7412 O.3     1  UNL1       -0.4684
     20 C          60.3717   90.0625   10.1111 C.3     1  UNL1        0.2526
@<TRIPOS>BOND
     1     7     8    1
     2     8     1    1
     3     1     2   ar
     4     2     3   ar
     5     3     4   ar
     6     4     5   ar
     7     5     9    1
     8     9    10    2
     9    10    11    1
    10    11    12    2
    11    11    13    1
    12    13    14   ar
    13    14    15   ar
    14    15    16   ar
    15    16    17   ar
    16     5     6   ar
    17     6    19    1
    18    19    20    1
    19     6     1   ar
    20    17    13   ar
    21    17    18    1
