@<TRIPOS>MOLECULE
*****
 35 39 0 0 0
SMALL
GASTEIGER

@<TRIPOS>ATOM
      1 C          66.5814   94.0053   13.3127 C.3     1  UNL1        0.2159
      2 N          65.7476   92.7863   13.0498 N.am    1  UNL1       -0.1449
      3 C          65.7172   91.6686   14.0495 C.2     1  UNL1        0.3728
      4 N          66.5205   91.7696   15.3123 N.2     1  UNL1       -0.1329
      5 N          64.8834   90.4496   13.7866 N.pl3   1  UNL1       -0.2247
      6 C          64.0801   90.3486   12.5239 C.3     1  UNL1        0.1559
      7 C          63.1717   89.2783   11.9951 C.3     1  UNL1        0.1327
      8 N          62.6408   89.7348   10.6686 N.pl3   1  UNL1       -0.2740
      9 C          63.2210   91.0870   10.3774 C.3     1  UNL1        0.1079
     10 C          64.1105   91.4664   11.5241 C.3     1  UNL1        0.1498
     11 C          64.9443   92.6853   11.7870 C.2     1  UNL1        0.2919
     12 O          64.9748   93.8031   10.7873 O.2     1  UNL1       -0.2563
     13 H          67.0678   92.5696   15.4849 H       1  UNL1        0.3058
     14 H          64.8634   89.7159   14.4428 H       1  UNL1        0.2454
     15 C          61.6956   88.9727    9.7877 C.ar    1  UNL1        0.2204
     16 N          60.6234   89.7000    9.0318 N.ar    1  UNL1       -0.2097
     17 C          59.6783   88.9378    8.1510 C.ar    1  UNL1        0.1330
     18 C          59.8053   87.4485    8.0260 C.ar    1  UNL1        0.1784
     19 F          58.8601   86.6864    7.1451 F       1  UNL1       -0.2009
     20 C          60.8775   86.7212    8.7819 C.ar    1  UNL1        0.1330
     21 N          61.8227   87.4833    9.6627 N.ar    1  UNL1       -0.2097
     22 C          63.9510   89.1572   13.4261 C.ar    1  UNL1        0.0397
     23 C          63.7900   87.7320   12.9871 C.ar    1  UNL1        0.0057
     24 C          63.6998   86.8759   14.2155 C.ar    1  UNL1        0.0068
     25 C          63.8050   87.7721   15.4138 C.ar    1  UNL1        0.0352
     26 S          63.9602   89.1820   14.9259 S.2     1  UNL1       -0.0878
     27 C          63.5335   85.3854   14.2412 C.ar    1  UNL1        0.0013
     28 C          63.3314   84.6756   15.5470 C.ar    1  UNL1        0.0024
     29 C          63.1651   83.1851   15.5727 C.ar    1  UNL1        0.0303
     30 C          63.2011   82.4043   14.2924 C.ar    1  UNL1        0.1497
     31 F          63.0348   80.9137   14.3181 F       1  UNL1       -0.2035
     32 C          63.4032   83.1140   12.9866 C.ar    1  UNL1        0.0958
     33 C          63.5695   84.6046   12.9609 C.ar    1  UNL1        0.0126
     34 C          63.4392   82.3333   11.7063 C.1     1  UNL1        0.1027
     35 N          63.4751   81.5525   10.4260 N.1     1  UNL1       -0.1908
@<TRIPOS>BOND
     1     1     2    1
     2     2     3    1
     3     3     4    2
     4     3     5    1
     5     5     6    1
     6     6    22    1
     7    22    23   ar
     8    23    24   ar
     9    24    27    1
    10    27    28   ar
    11    28    29   ar
    12    29    30   ar
    13    30    31    1
    14    30    32   ar
    15    32    34    1
    16    34    35    3
    17    32    33   ar
    18    24    25   ar
    19    25    26   ar
    20     6     7    1
    21     7     8    1
    22     8    15    1
    23    15    16   ar
    24    16    17   ar
    25    17    18   ar
    26    18    19    1
    27    18    20   ar
    28    20    21   ar
    29     8     9    1
    30    10     9    1
    31    10    11    1
    32    11    12    2
    33    11     2   am
    34    10     6    1
    35    26    22   ar
    36    21    15   ar
    37    33    27   ar
    38     4    13    1
    39     5    14    1
@<TRIPOS>MOLECULE
*****
 35 39 0 0 0
SMALL
GASTEIGER

@<TRIPOS>ATOM
      1 C          64.2226   83.0756   14.4383 C.3     1  UNL1        0.2159
      2 N          63.7533   84.3049   13.7179 N.am    1  UNL1       -0.1449
      3 C          64.1452   85.6632   14.2189 C.2     1  UNL1        0.3728
      4 N          65.0064   85.7925   15.4403 N.2     1  UNL1       -0.1329
      5 N          63.6760   86.8925   13.4985 N.pl3   1  UNL1       -0.2247
      6 C          62.8149   86.7632   12.2772 C.3     1  UNL1        0.1559
      7 C          62.2055   87.7869   11.3658 C.3     1  UNL1        0.1327
      8 N          61.4370   87.0612   10.3016 N.pl3   1  UNL1       -0.2740
      9 C          61.5713   85.5889   10.5552 C.3     1  UNL1        0.1079
     10 C          62.4230   85.4047   11.7762 C.3     1  UNL1        0.1498
     11 C          62.8922   84.1756   12.4966 C.2     1  UNL1        0.2919
     12 O          62.5003   82.8171   11.9956 O.2     1  UNL1       -0.2563
     13 H          65.3144   84.9858   15.9131 H       1  UNL1        0.3058
     14 H          63.9333   87.7841   13.8273 H       1  UNL1        0.2454
     15 C          60.6689   87.6962    9.1805 C.ar    1  UNL1        0.2204
     16 N          59.8324   86.8475    8.2694 N.ar    1  UNL1       -0.2097
     17 C          59.0643   87.4826    7.1484 C.ar    1  UNL1        0.1330
     18 C          59.1327   88.9663    6.9384 C.ar    1  UNL1        0.1784
     19 F          58.3645   89.6013    5.8173 F       1  UNL1       -0.2009
     20 C          59.9691   89.8149    7.8495 C.ar    1  UNL1        0.1330
     21 N          60.7372   89.1798    8.9706 N.ar    1  UNL1       -0.2097
     22 C          63.1244   88.1806   12.6583 C.ar    1  UNL1        0.0397
     23 C          64.2402   88.6289   13.5548 C.ar    1  UNL1        0.0057
     24 C          64.1778   90.1239   13.6603 C.ar    1  UNL1        0.0068
     25 C          63.0234   90.5995   12.8290 C.ar    1  UNL1        0.0352
     26 S          62.3723   89.3984   12.2097 S.2     1  UNL1       -0.0878
     27 C          65.1067   90.9911   14.4572 C.ar    1  UNL1        0.0013
     28 C          64.6112   91.6854   15.6910 C.ar    1  UNL1        0.0024
     29 C          65.5402   92.5526   16.4879 C.ar    1  UNL1        0.0303
     30 C          66.9647   92.7255   16.0510 C.ar    1  UNL1        0.1497
     31 F          67.8936   93.5927   16.8480 F       1  UNL1       -0.2035
     32 C          67.4602   92.0312   14.8172 C.ar    1  UNL1        0.0958
     33 C          66.5313   91.1640   14.0203 C.ar    1  UNL1        0.0126
     34 C          68.8847   92.2040   14.3803 C.1     1  UNL1        0.1027
     35 N          70.3092   92.3767   13.9433 N.1     1  UNL1       -0.1908
@<TRIPOS>BOND
     1     1     2    1
     2     2     3    1
     3     3     4    2
     4     3     5    1
     5     5     6    1
     6     6    22    1
     7    22    23   ar
     8    23    24   ar
     9    24    27    1
    10    27    28   ar
    11    28    29   ar
    12    29    30   ar
    13    30    31    1
    14    30    32   ar
    15    32    34    1
    16    34    35    3
    17    32    33   ar
    18    24    25   ar
    19    25    26   ar
    20     6     7    1
    21     7     8    1
    22     8    15    1
    23    15    16   ar
    24    16    17   ar
    25    17    18   ar
    26    18    19    1
    27    18    20   ar
    28    20    21   ar
    29     8     9    1
    30    10     9    1
    31    10    11    1
    32    11    12    2
    33    11     2   am
    34    10     6    1
    35    26    22   ar
    36    21    15   ar
    37    33    27   ar
    38     4    13    1
    39     5    14    1
@<TRIPOS>MOLECULE
*****
 35 39 0 0 0
SMALL
GASTEIGER

@<TRIPOS>ATOM
      1 C          59.7566   89.4356    7.9006 C.3     1  UNL1        0.2159
      2 N          60.5360   88.7346    8.9736 N.am    1  UNL1       -0.1449
      3 C          61.3437   89.5305    9.9553 C.2     1  UNL1        0.3728
      4 N          61.3722   91.0275    9.8642 N.2     1  UNL1       -0.1329
      5 N          62.1231   88.8295   11.0283 N.pl3   1  UNL1       -0.2247
      6 C          62.0946   87.3325   11.1195 C.3     1  UNL1        0.1559
      7 C          62.7565   86.3716   12.0621 C.3     1  UNL1        0.1327
      8 N          62.3578   84.9818   11.6628 N.pl3   1  UNL1       -0.2740
      9 C          61.4494   85.0838   10.4735 C.3     1  UNL1        0.1079
     10 C          61.2868   86.5366   10.1377 C.3     1  UNL1        0.1498
     11 C          60.5075   87.2376    9.0647 C.2     1  UNL1        0.2919
     12 O          59.6997   86.4417    8.0829 O.2     1  UNL1       -0.2563
     13 H          60.8607   91.4876    9.1599 H       1  UNL1        0.3058
     14 H          62.6533   89.3519   11.6727 H       1  UNL1        0.2454
     15 C          62.7913   83.7128   12.3349 C.ar    1  UNL1        0.2204
     16 N          63.3652   83.7559   13.7201 N.ar    1  UNL1       -0.2097
     17 C          63.7986   82.4868   14.3922 C.ar    1  UNL1        0.1330
     18 C          63.6582   81.1747   13.6791 C.ar    1  UNL1        0.1784
     19 F          64.0917   79.9057   14.3511 F       1  UNL1       -0.2009
     20 C          63.0843   81.1316   12.2939 C.ar    1  UNL1        0.1330
     21 N          62.6508   82.4006   11.6218 N.ar    1  UNL1       -0.2097
     22 C          62.9433   87.9915   12.1661 C.ar    1  UNL1        0.0397
     23 C          63.4922   89.3861   12.1065 C.ar    1  UNL1        0.0057
     24 C          64.2802   89.6281   13.3598 C.ar    1  UNL1        0.0068
     25 C          64.2183   88.3829   14.1939 C.ar    1  UNL1        0.0352
     26 S          63.3920   87.3714   13.4561 S.2     1  UNL1       -0.0878
     27 C          65.0032   90.8930   13.7163 C.ar    1  UNL1        0.0013
     28 C          65.3743   91.1682   15.1433 C.ar    1  UNL1        0.0024
     29 C          66.0973   92.4331   15.4999 C.ar    1  UNL1        0.0303
     30 C          66.4492   93.4231   14.4293 C.ar    1  UNL1        0.1497
     31 F          67.1722   94.6880   14.7858 F       1  UNL1       -0.2035
     32 C          66.0782   93.1479   13.0022 C.ar    1  UNL1        0.0958
     33 C          65.3552   91.8830   12.6457 C.ar    1  UNL1        0.0126
     34 C          66.4301   94.1378   11.9315 C.1     1  UNL1        0.1027
     35 N          66.7820   95.1277   10.8609 N.1     1  UNL1       -0.1908
@<TRIPOS>BOND
     1     1     2    1
     2     2     3    1
     3     3     4    2
     4     3     5    1
     5     5     6    1
     6     6    22    1
     7    22    23   ar
     8    23    24   ar
     9    24    27    1
    10    27    28   ar
    11    28    29   ar
    12    29    30   ar
    13    30    31    1
    14    30    32   ar
    15    32    34    1
    16    34    35    3
    17    32    33   ar
    18    24    25   ar
    19    25    26   ar
    20     6     7    1
    21     7     8    1
    22     8    15    1
    23    15    16   ar
    24    16    17   ar
    25    17    18   ar
    26    18    19    1
    27    18    20   ar
    28    20    21   ar
    29     8     9    1
    30    10     9    1
    31    10    11    1
    32    11    12    2
    33    11     2   am
    34    10     6    1
    35    26    22   ar
    36    21    15   ar
    37    33    27   ar
    38     4    13    1
    39     5    14    1
@<TRIPOS>MOLECULE
*****
 35 39 0 0 0
SMALL
GASTEIGER

@<TRIPOS>ATOM
      1 C          59.4313   88.2290    7.6336 C.3     1  UNL1        0.2159
      2 N          60.3302   88.2315    8.8345 N.am    1  UNL1       -0.1449
      3 C          60.7330   86.9352    9.4725 C.2     1  UNL1        0.3728
      4 N          60.2369   85.6362    8.9097 N.2     1  UNL1       -0.1329
      5 N          61.6319   86.9377   10.6734 N.pl3   1  UNL1       -0.2247
      6 C          62.1280   88.2366   11.2361 C.3     1  UNL1        0.1559
      7 C          63.0184   88.5505   12.4016 C.3     1  UNL1        0.1327
      8 N          63.1660   90.0410   12.4839 N.pl3   1  UNL1       -0.2740
      9 C          62.3667   90.6482   11.3692 C.3     1  UNL1        0.1079
     10 C          61.7252   89.5330   10.5980 C.3     1  UNL1        0.1498
     11 C          60.8263   89.5304    9.3972 C.2     1  UNL1        0.2919
     12 O          60.4235   90.8268    8.7591 O.2     1  UNL1       -0.2563
     13 H          59.6469   85.6345    8.1216 H       1  UNL1        0.3058
     14 H          61.8963   86.0868   11.0921 H       1  UNL1        0.2454
     15 C          63.9714   90.7924   13.5021 C.ar    1  UNL1        0.2204
     16 N          63.5460   90.7965   14.9405 N.ar    1  UNL1       -0.2097
     17 C          64.3515   91.5479   15.9586 C.ar    1  UNL1        0.1330
     18 C          65.5822   92.2953   15.5384 C.ar    1  UNL1        0.1784
     19 F          66.3876   93.0467   16.5566 F       1  UNL1       -0.2009
     20 C          66.0076   92.2912   14.1000 C.ar    1  UNL1        0.1330
     21 N          65.2022   91.5398   13.0819 N.ar    1  UNL1       -0.2097
     22 C          62.6127   87.0258   11.9771 C.ar    1  UNL1        0.0397
     23 C          62.1410   85.6172   11.7689 C.ar    1  UNL1        0.0057
     24 C          62.8911   84.7319   12.7195 C.ar    1  UNL1        0.0068
     25 C          63.8264   85.5934   13.5152 C.ar    1  UNL1        0.0352
     26 S          63.6543   87.0111   13.0563 S.2     1  UNL1       -0.0878
     27 C          62.7336   83.2461   12.8513 C.ar    1  UNL1        0.0013
     28 C          62.4210   82.6405   14.1875 C.ar    1  UNL1        0.0024
     29 C          62.2634   81.1547   14.3193 C.ar    1  UNL1        0.0303
     30 C          62.4185   80.2743   13.1148 C.ar    1  UNL1        0.1497
     31 F          62.2610   78.7884   13.2465 F       1  UNL1       -0.2035
     32 C          62.7311   80.8798   11.7785 C.ar    1  UNL1        0.0958
     33 C          62.8887   82.3657   11.6468 C.ar    1  UNL1        0.0126
     34 C          62.8862   79.9994   10.5739 C.1     1  UNL1        0.1027
     35 N          63.0413   79.1190    9.3694 N.1     1  UNL1       -0.1908
@<TRIPOS>BOND
     1     1     2    1
     2     2     3    1
     3     3     4    2
     4     3     5    1
     5     5     6    1
     6     6    22    1
     7    22    23   ar
     8    23    24   ar
     9    24    27    1
    10    27    28   ar
    11    28    29   ar
    12    29    30   ar
    13    30    31    1
    14    30    32   ar
    15    32    34    1
    16    34    35    3
    17    32    33   ar
    18    24    25   ar
    19    25    26   ar
    20     6     7    1
    21     7     8    1
    22     8    15    1
    23    15    16   ar
    24    16    17   ar
    25    17    18   ar
    26    18    19    1
    27    18    20   ar
    28    20    21   ar
    29     8     9    1
    30    10     9    1
    31    10    11    1
    32    11    12    2
    33    11     2   am
    34    10     6    1
    35    26    22   ar
    36    21    15   ar
    37    33    27   ar
    38     4    13    1
    39     5    14    1
@<TRIPOS>MOLECULE
*****
 35 39 0 0 0
SMALL
GASTEIGER

@<TRIPOS>ATOM
      1 C          59.9842   88.2949    8.0589 C.3     1  UNL1        0.2159
      2 N          60.8723   88.3181    9.2676 N.am    1  UNL1       -0.1449
      3 C          61.1973   87.0411    9.9842 C.2     1  UNL1        0.3728
      4 N          60.6342   85.7407    9.4921 N.2     1  UNL1       -0.1329
      5 N          62.0854   87.0643   11.1929 N.pl3   1  UNL1       -0.2247
      6 C          62.6484   88.3646   11.6849 C.3     1  UNL1        0.1559
      7 C          63.5456   88.6968   12.8402 C.3     1  UNL1        0.1327
      8 N          63.7750   90.1791   12.8376 N.pl3   1  UNL1       -0.2740
      9 C          63.0197   90.7631   11.6807 C.3     1  UNL1        0.1079
     10 C          62.3233   89.6417   10.9683 C.3     1  UNL1        0.1498
     11 C          61.4353   89.6184    9.7597 C.2     1  UNL1        0.2919
     12 O          61.1103   90.8955    9.0431 O.2     1  UNL1       -0.2563
     13 H          60.0514   85.7254    8.6988 H       1  UNL1        0.3058
     14 H          62.2987   86.2261   11.6632 H       1  UNL1        0.2454
     15 C          64.6128   90.9433   13.8195 C.ar    1  UNL1        0.2204
     16 N          64.0476   91.3148   15.1584 N.ar    1  UNL1       -0.2097
     17 C          64.8855   92.0790   16.1403 C.ar    1  UNL1        0.1330
     18 C          66.2884   92.4717   15.7833 C.ar    1  UNL1        0.1784
     19 F          67.1262   93.2359   16.7652 F       1  UNL1       -0.2009
     20 C          66.8536   92.1003   14.4445 C.ar    1  UNL1        0.1330
     21 N          66.0158   91.3360   13.4626 N.ar    1  UNL1       -0.2097
     22 C          63.0591   87.1744   12.5002 C.ar    1  UNL1        0.0397
     23 C          62.6634   85.7506   12.2432 C.ar    1  UNL1        0.0057
     24 C          63.2975   84.8953   13.2998 C.ar    1  UNL1        0.0068
     25 C          64.0851   85.7905   14.2099 C.ar    1  UNL1        0.0352
     26 S          63.9378   87.1992   13.7157 S.2     1  UNL1       -0.0878
     27 C          63.1669   83.4062   13.4245 C.ar    1  UNL1        0.0013
     28 C          64.3653   82.5283   13.2174 C.ar    1  UNL1        0.0024
     29 C          64.2347   81.0392   13.3421 C.ar    1  UNL1        0.0303
     30 C          62.9056   80.4280   13.6739 C.ar    1  UNL1        0.1497
     31 F          62.7750   78.9389   13.7986 F       1  UNL1       -0.2035
     32 C          61.7072   81.3060   13.8809 C.ar    1  UNL1        0.0958
     33 C          61.8378   82.7951   13.7562 C.ar    1  UNL1        0.0126
     34 C          60.3781   80.6949   14.2126 C.1     1  UNL1        0.1027
     35 N          59.0489   80.0839   14.5444 N.1     1  UNL1       -0.1908
@<TRIPOS>BOND
     1     1     2    1
     2     2     3    1
     3     3     4    2
     4     3     5    1
     5     5     6    1
     6     6    22    1
     7    22    23   ar
     8    23    24   ar
     9    24    27    1
    10    27    28   ar
    11    28    29   ar
    12    29    30   ar
    13    30    31    1
    14    30    32   ar
    15    32    34    1
    16    34    35    3
    17    32    33   ar
    18    24    25   ar
    19    25    26   ar
    20     6     7    1
    21     7     8    1
    22     8    15    1
    23    15    16   ar
    24    16    17   ar
    25    17    18   ar
    26    18    19    1
    27    18    20   ar
    28    20    21   ar
    29     8     9    1
    30    10     9    1
    31    10    11    1
    32    11    12    2
    33    11     2   am
    34    10     6    1
    35    26    22   ar
    36    21    15   ar
    37    33    27   ar
    38     4    13    1
    39     5    14    1
@<TRIPOS>MOLECULE
*****
 35 39 0 0 0
SMALL
GASTEIGER

@<TRIPOS>ATOM
      1 C          63.9539   81.0687   14.1494 C.3     1  UNL1        0.2159
      2 N          63.6444   82.4611   13.6851 N.am    1  UNL1       -0.1449
      3 C          64.1484   83.6405   14.4629 C.2     1  UNL1        0.3728
      4 N          64.9619   83.4276   15.7051 N.2     1  UNL1       -0.1329
      5 N          63.8389   85.0329   13.9985 N.pl3   1  UNL1       -0.2247
      6 C          63.0254   85.2458   12.7564 C.3     1  UNL1        0.1559
      7 C          62.5646   86.4917   12.0597 C.3     1  UNL1        0.1327
      8 N          61.7758   86.0822   10.8513 N.pl3   1  UNL1       -0.2740
      9 C          61.7491   84.5833   10.8012 C.3     1  UNL1        0.1079
     10 C          62.5215   84.0663   11.9786 C.3     1  UNL1        0.1498
     11 C          62.8310   82.6740   12.4430 C.2     1  UNL1        0.2919
     12 O          62.3270   81.4945   11.6652 O.2     1  UNL1       -0.2563
     13 H          65.1650   82.5138   16.0099 H       1  UNL1        0.3058
     14 H          64.1697   85.8070   14.5090 H       1  UNL1        0.2454
     15 C          61.1274   87.0089    9.8661 C.ar    1  UNL1        0.2204
     16 N          60.3633   86.4509    8.7022 N.ar    1  UNL1       -0.2097
     17 C          59.7150   87.3777    7.7169 C.ar    1  UNL1        0.1330
     18 C          59.8307   88.8626    7.8955 C.ar    1  UNL1        0.1784
     19 F          59.1824   89.7893    6.9102 F       1  UNL1       -0.2009
     20 C          60.5949   89.4206    9.0594 C.ar    1  UNL1        0.1330
     21 N          61.2432   88.4938   10.0447 N.ar    1  UNL1       -0.2097
     22 C          63.4589   86.5156   13.4269 C.ar    1  UNL1        0.0397
     23 C          63.8601   87.7850   12.7359 C.ar    1  UNL1        0.0057
     24 C          64.2164   88.7929   13.7882 C.ar    1  UNL1        0.0068
     25 C          64.0354   88.1464   15.1296 C.ar    1  UNL1        0.0352
     26 S          63.5672   86.7388   14.9062 S.2     1  UNL1       -0.0878
     27 C          64.6734   90.2003   13.5424 C.ar    1  UNL1        0.0013
     28 C          64.1958   90.9430   12.3299 C.ar    1  UNL1        0.0024
     29 C          64.6529   92.3503   12.0840 C.ar    1  UNL1        0.0303
     30 C          65.5876   93.0150   13.0507 C.ar    1  UNL1        0.1497
     31 F          66.0446   94.4224   12.8048 F       1  UNL1       -0.2035
     32 C          66.0652   92.2723   14.2632 C.ar    1  UNL1        0.0958
     33 C          65.6081   90.8650   14.5090 C.ar    1  UNL1        0.0126
     34 C          66.9999   92.9370   15.2299 C.1     1  UNL1        0.1027
     35 N          67.9347   93.6016   16.1966 N.1     1  UNL1       -0.1908
@<TRIPOS>BOND
     1     1     2    1
     2     2     3    1
     3     3     4    2
     4     3     5    1
     5     5     6    1
     6     6    22    1
     7    22    23   ar
     8    23    24   ar
     9    24    27    1
    10    27    28   ar
    11    28    29   ar
    12    29    30   ar
    13    30    31    1
    14    30    32   ar
    15    32    34    1
    16    34    35    3
    17    32    33   ar
    18    24    25   ar
    19    25    26   ar
    20     6     7    1
    21     7     8    1
    22     8    15    1
    23    15    16   ar
    24    16    17   ar
    25    17    18   ar
    26    18    19    1
    27    18    20   ar
    28    20    21   ar
    29     8     9    1
    30    10     9    1
    31    10    11    1
    32    11    12    2
    33    11     2   am
    34    10     6    1
    35    26    22   ar
    36    21    15   ar
    37    33    27   ar
    38     4    13    1
    39     5    14    1
@<TRIPOS>MOLECULE
*****
 35 39 0 0 0
SMALL
GASTEIGER

@<TRIPOS>ATOM
      1 C          67.3789   94.3870   14.5550 C.3     1  UNL1        0.2159
      2 N          66.5311   93.2175   14.1505 N.am    1  UNL1       -0.1449
      3 C          65.7597   93.2594   12.8649 C.2     1  UNL1        0.3728
      4 N          65.8360   94.4708   11.9835 N.2     1  UNL1       -0.1329
      5 N          64.9118   92.0899   12.4605 N.pl3   1  UNL1       -0.2247
      6 C          64.8355   90.8785   13.3418 C.3     1  UNL1        0.1559
      7 C          64.0897   89.5842   13.2064 C.3     1  UNL1        0.1327
      8 N          64.4002   88.7424   14.4084 N.pl3   1  UNL1       -0.2740
      9 C          65.3380   89.5164   15.2868 C.3     1  UNL1        0.1079
     10 C          65.6070   90.8367   14.6275 C.3     1  UNL1        0.1498
     11 C          66.4548   92.0062   15.0319 C.2     1  UNL1        0.2919
     12 O          67.2263   91.9644   16.3176 O.2     1  UNL1       -0.2563
     13 H          66.3924   95.2384   12.2489 H       1  UNL1        0.3058
     14 H          64.4055   92.1173   11.6166 H       1  UNL1        0.2454
     15 C          63.8667   87.3678   14.6838 C.ar    1  UNL1        0.2204
     16 N          63.4873   86.9766   16.0814 N.ar    1  UNL1       -0.2097
     17 C          62.9538   85.6019   16.3567 C.ar    1  UNL1        0.1330
     18 C          62.7996   84.6185   15.2346 C.ar    1  UNL1        0.1784
     19 F          62.2661   83.2439   15.5100 F       1  UNL1       -0.2009
     20 C          63.1790   85.0097   13.8371 C.ar    1  UNL1        0.1330
     21 N          63.7125   86.3844   13.5618 N.ar    1  UNL1       -0.2097
     22 C          64.0125   90.7765   12.0919 C.ar    1  UNL1        0.0397
     23 C          63.0757   89.6586   11.7419 C.ar    1  UNL1        0.0057
     24 C          62.4661   89.9657   10.4062 C.ar    1  UNL1        0.0068
     25 C          63.0261   91.2735    9.9307 C.ar    1  UNL1        0.0352
     26 S          63.9819   91.7746   10.9726 S.2     1  UNL1       -0.0878
     27 C          61.4710   89.1145    9.6745 C.ar    1  UNL1        0.0013
     28 C          61.2866   87.6768   10.0602 C.ar    1  UNL1        0.0024
     29 C          60.2916   86.8256    9.3284 C.ar    1  UNL1        0.0303
     30 C          59.4810   87.4122    8.2110 C.ar    1  UNL1        0.1497
     31 F          58.4859   86.5610    7.4792 F       1  UNL1       -0.2035
     32 C          59.6654   88.8500    7.8253 C.ar    1  UNL1        0.0958
     33 C          60.6604   89.7011    8.5570 C.ar    1  UNL1        0.0126
     34 C          58.8547   89.4367    6.7078 C.1     1  UNL1        0.1027
     35 N          58.0441   90.0234    5.5904 N.1     1  UNL1       -0.1908
@<TRIPOS>BOND
     1     1     2    1
     2     2     3    1
     3     3     4    2
     4     3     5    1
     5     5     6    1
     6     6    22    1
     7    22    23   ar
     8    23    24   ar
     9    24    27    1
    10    27    28   ar
    11    28    29   ar
    12    29    30   ar
    13    30    31    1
    14    30    32   ar
    15    32    34    1
    16    34    35    3
    17    32    33   ar
    18    24    25   ar
    19    25    26   ar
    20     6     7    1
    21     7     8    1
    22     8    15    1
    23    15    16   ar
    24    16    17   ar
    25    17    18   ar
    26    18    19    1
    27    18    20   ar
    28    20    21   ar
    29     8     9    1
    30    10     9    1
    31    10    11    1
    32    11    12    2
    33    11     2   am
    34    10     6    1
    35    26    22   ar
    36    21    15   ar
    37    33    27   ar
    38     4    13    1
    39     5    14    1
@<TRIPOS>MOLECULE
*****
 35 39 0 0 0
SMALL
GASTEIGER

@<TRIPOS>ATOM
      1 C          67.1914   94.3873   14.2275 C.3     1  UNL1        0.2159
      2 N          66.3625   93.1797   13.9034 N.am    1  UNL1       -0.1449
      3 C          65.5679   93.1346   12.6321 C.2     1  UNL1        0.3728
      4 N          65.6020   94.2971   11.6847 N.2     1  UNL1       -0.1329
      5 N          64.7390   91.9271   12.3081 N.pl3   1  UNL1       -0.2247
      6 C          64.7049   90.7647   13.2555 C.3     1  UNL1        0.1559
      7 C          63.9855   89.4494   13.2049 C.3     1  UNL1        0.1327
      8 N          64.3356   88.6817   14.4451 N.pl3   1  UNL1       -0.2740
      9 C          65.2714   89.5224   15.2621 C.3     1  UNL1        0.1079
     10 C          65.4996   90.8098   14.5269 C.3     1  UNL1        0.1498
     11 C          66.3284   92.0173   14.8509 C.2     1  UNL1        0.2919
     12 O          67.1231   92.0624   16.1223 O.2     1  UNL1       -0.2563
     13 H          66.1460   95.0897   11.8973 H       1  UNL1        0.3058
     14 H          64.2174   91.8975   11.4736 H       1  UNL1        0.2454
     15 C          63.8374   87.3134   14.8050 C.ar    1  UNL1        0.2204
     16 N          63.8066   86.2297   13.7684 N.ar    1  UNL1       -0.2097
     17 C          63.3084   84.8614   14.1285 C.ar    1  UNL1        0.1330
     18 C          62.8410   84.5768   15.5251 C.ar    1  UNL1        0.1784
     19 F          62.3428   83.2085   15.8850 F       1  UNL1       -0.2009
     20 C          62.8718   85.6605   16.5617 C.ar    1  UNL1        0.1330
     21 N          63.3700   87.0288   16.2016 N.ar    1  UNL1       -0.2097
     22 C          63.8625   90.5768   12.0287 C.ar    1  UNL1        0.0397
     23 C          63.0918   89.3413   11.6691 C.ar    1  UNL1        0.0057
     24 C          62.3959   89.5925   10.3642 C.ar    1  UNL1        0.0068
     25 C          62.7365   90.9833    9.9174 C.ar    1  UNL1        0.0352
     26 S          63.6430   91.5916   10.9461 S.2     1  UNL1       -0.0878
     27 C          61.5142   88.6231    9.6343 C.ar    1  UNL1        0.0013
     28 C          60.0267   88.8162    9.6332 C.ar    1  UNL1        0.0024
     29 C          59.1449   87.8468    8.9033 C.ar    1  UNL1        0.0303
     30 C          59.7507   86.6842    8.1745 C.ar    1  UNL1        0.1497
     31 F          58.8690   85.7148    7.4446 F       1  UNL1       -0.2035
     32 C          61.2382   86.4910    8.1755 C.ar    1  UNL1        0.0958
     33 C          62.1199   87.4604    8.9054 C.ar    1  UNL1        0.0126
     34 C          61.8440   85.3283    7.4466 C.1     1  UNL1        0.1027
     35 N          62.4498   84.1656    6.7178 N.1     1  UNL1       -0.1908
@<TRIPOS>BOND
     1     1     2    1
     2     2     3    1
     3     3     4    2
     4     3     5    1
     5     5     6    1
     6     6    22    1
     7    22    23   ar
     8    23    24   ar
     9    24    27    1
    10    27    28   ar
    11    28    29   ar
    12    29    30   ar
    13    30    31    1
    14    30    32   ar
    15    32    34    1
    16    34    35    3
    17    32    33   ar
    18    24    25   ar
    19    25    26   ar
    20     6     7    1
    21     7     8    1
    22     8    15    1
    23    15    16   ar
    24    16    17   ar
    25    17    18   ar
    26    18    19    1
    27    18    20   ar
    28    20    21   ar
    29     8     9    1
    30    10     9    1
    31    10    11    1
    32    11    12    2
    33    11     2   am
    34    10     6    1
    35    26    22   ar
    36    21    15   ar
    37    33    27   ar
    38     4    13    1
    39     5    14    1
@<TRIPOS>MOLECULE
*****
 35 39 0 0 0
SMALL
GASTEIGER

@<TRIPOS>ATOM
      1 C          58.9988   87.9414    6.3695 C.3     1  UNL1        0.2159
      2 N          59.8117   87.8596    7.6275 N.am    1  UNL1       -0.1449
      3 C          60.2550   89.1157    8.3171 C.2     1  UNL1        0.3728
      4 N          59.8854   90.4538    7.7487 N.2     1  UNL1       -0.1329
      5 N          61.0679   89.0339    9.5751 N.pl3   1  UNL1       -0.2247
      6 C          61.4375   87.6958   10.1435 C.3     1  UNL1        0.1559
      7 C          62.2237   87.3044   11.3594 C.3     1  UNL1        0.1327
      8 N          62.2664   85.8062   11.4213 N.pl3   1  UNL1       -0.2740
      9 C          61.5064   85.2718   10.2436 C.3     1  UNL1        0.1079
     10 C          60.9942   86.4397    9.4538 C.3     1  UNL1        0.1498
     11 C          60.1813   86.5216    8.1959 C.2     1  UNL1        0.2919
     12 O          59.7380   85.2654    7.5062 O.2     1  UNL1       -0.2563
     13 H          59.3519   90.5076    6.9230 H       1  UNL1        0.3058
     14 H          61.3589   89.8583   10.0277 H       1  UNL1        0.2454
     15 C          62.9490   84.9864   12.4757 C.ar    1  UNL1        0.2204
     16 N          63.0489   83.4978   12.3206 N.ar    1  UNL1       -0.2097
     17 C          63.7316   82.6781   13.3751 C.ar    1  UNL1        0.1330
     18 C          64.3144   83.3468   14.5847 C.ar    1  UNL1        0.1784
     19 F          64.9971   82.5270   15.6391 F       1  UNL1       -0.2009
     20 C          64.2146   84.8354   14.7398 C.ar    1  UNL1        0.1330
     21 N          63.5319   85.6552   13.6853 N.ar    1  UNL1       -0.2097
     22 C          61.9497   88.8594   10.9395 C.ar    1  UNL1        0.0397
     23 C          63.0783   89.7667   10.5484 C.ar    1  UNL1        0.0057
     24 C          63.2493   90.7881   11.6336 C.ar    1  UNL1        0.0068
     25 C          62.2264   90.5120   12.6954 C.ar    1  UNL1        0.0352
     26 S          61.4232   89.3200   12.2664 S.2     1  UNL1       -0.0878
     27 C          64.2649   91.8917   11.6535 C.ar    1  UNL1        0.0013
     28 C          64.4836   92.7320   10.4304 C.ar    1  UNL1        0.0024
     29 C          65.4992   93.8356   10.4503 C.ar    1  UNL1        0.0303
     30 C          66.2962   94.0991   11.6934 C.ar    1  UNL1        0.1497
     31 F          67.3119   95.2028   11.7133 F       1  UNL1       -0.2035
     32 C          66.0776   93.2589   12.9166 C.ar    1  UNL1        0.0958
     33 C          65.0620   92.1552   12.8966 C.ar    1  UNL1        0.0126
     34 C          66.8745   93.5223   14.1598 C.1     1  UNL1        0.1027
     35 N          67.6715   93.7856   15.4030 N.1     1  UNL1       -0.1908
@<TRIPOS>BOND
     1     1     2    1
     2     2     3    1
     3     3     4    2
     4     3     5    1
     5     5     6    1
     6     6    22    1
     7    22    23   ar
     8    23    24   ar
     9    24    27    1
    10    27    28   ar
    11    28    29   ar
    12    29    30   ar
    13    30    31    1
    14    30    32   ar
    15    32    34    1
    16    34    35    3
    17    32    33   ar
    18    24    25   ar
    19    25    26   ar
    20     6     7    1
    21     7     8    1
    22     8    15    1
    23    15    16   ar
    24    16    17   ar
    25    17    18   ar
    26    18    19    1
    27    18    20   ar
    28    20    21   ar
    29     8     9    1
    30    10     9    1
    31    10    11    1
    32    11    12    2
    33    11     2   am
    34    10     6    1
    35    26    22   ar
    36    21    15   ar
    37    33    27   ar
    38     4    13    1
    39     5    14    1
