@<TRIPOS>MOLECULE
*****
 41 45 0 0 0
SMALL
GASTEIGER

@<TRIPOS>ATOM
      1 C          61.7747   88.3564   10.2019 C.3     1  UNL1        0.0312
      2 C          62.4142   87.4775   11.2357 C.2     1  UNL1        0.0136
      3 C          62.3367   85.9854   11.1034 C.2     1  UNL1        0.0107
      4 C          62.9761   85.1066   12.1371 C.2     1  UNL1        0.0509
      5 C          63.6933   85.7199   13.3032 C.2     1  UNL1        0.0613
      6 C          63.7709   87.2120   13.4354 C.2     1  UNL1        0.2246
      7 N          64.4049   88.0965   14.4678 N.2     1  UNL1       -0.0378
      8 C          64.1571   89.5219   14.0720 C.2     1  UNL1        0.3605
      9 N          63.3701   89.5185   12.7951 N.2     1  UNL1       -0.0547
     10 C          63.1313   88.0908   12.4017 C.3     1  UNL1        0.2976
     11 C          64.6160   90.7375   14.8216 C.3     1  UNL1        0.2246
     12 C          65.6464   91.6458   14.2189 C.2     1  UNL1        0.0436
     13 C          66.1051   92.8614   14.9685 C.2     1  UNL1        0.0288
     14 C          65.5335   93.1687   16.3209 C.2     1  UNL1        0.0896
     15 N          64.5031   92.2605   16.9236 N.am    1  UNL1       -0.1770
     16 C          64.0444   91.0449   16.1739 C.2     1  UNL1        0.2627
     17 O          63.0140   90.1366   16.7767 O.2     1  UNL1       -0.2719
     18 N          66.2180   91.3385   12.8666 N.pl3   1  UNL1       -0.3329
     19 H          65.8077   90.6412   12.3056 H       1  UNL1        0.1466
     20 C          67.4147   92.0937   12.3689 C.3     1  UNL1        0.1211
     21 C          67.4412   92.6146   10.9625 C.3     1  UNL1        0.1522
     22 O          67.8837   91.7227    9.8406 O.3     1  UNL1       -0.3783
     23 H          68.1161   90.8498   10.1939 H       1  UNL1        0.2109
     24 C          67.0252   94.0274   10.6781 C.ar    1  UNL1        0.0067
     25 C          66.1816   94.7746   11.6680 C.ar    1  UNL1       -0.0018
     26 C          65.7656   96.1874   11.3836 C.ar    1  UNL1        0.0006
     27 C          66.1932   96.8531   10.1093 C.ar    1  UNL1        0.0114
     28 C          67.0368   96.1059    9.1194 C.ar    1  UNL1        0.0574
     29 CL         67.4645   96.7716    7.8450 Cl      1  UNL1       -0.0823
     30 C          67.4528   94.6931    9.4038 C.ar    1  UNL1        0.0095
     31 N          62.8986   83.6144   12.0048 N.pl3   1  UNL1       -0.3073
     32 C          62.3608   82.7882   13.1354 C.3     1  UNL1        0.0933
     33 C          62.2832   81.2960   13.0031 C.3     1  UNL1        0.0510
     34 C          62.7434   80.6301   11.7403 C.3     1  UNL1        0.1188
     35 C          63.2811   81.4563   10.6097 C.3     1  UNL1        0.0510
     36 C          63.3587   82.9485   10.7419 C.3     1  UNL1        0.0933
     37 O          62.6658   79.1380   11.6079 O.3     1  UNL1       -0.3535
     38 C          62.7564   78.4995   10.2536 C.3     1  UNL1        0.1737
     39 C          63.4494   77.1791   10.0917 C.3     1  UNL1        0.1692
     40 O          62.7048   75.9039   10.3552 O.3     1  UNL1       -0.3794
     41 H          62.4750   75.8523   11.2962 H       1  UNL1        0.2105
@<TRIPOS>BOND
     1     1     2    1
     2     2     3    2
     3     3     4    1
     4     4    31    1
     5    31    32    1
     6    32    33    1
     7    33    34    1
     8    34    37    1
     9    37    38    1
    10    38    39    1
    11    39    40    1
    12    34    35    1
    13    35    36    1
    14     4     5    2
    15     5     6    1
    16     6     7    2
    17     7     8    1
    18     8    11    1
    19    11    12    1
    20    12    18    1
    21    18    20    1
    22    20    21    1
    23    21    22    1
    24    21    24    1
    25    24    25   ar
    26    25    26   ar
    27    26    27   ar
    28    27    28   ar
    29    28    29    1
    30    28    30   ar
    31    12    13    2
    32    13    14    1
    33    14    15    2
    34    15    16    1
    35    16    17    2
    36     8     9    2
    37     9    10    1
    38    10     2    1
    39    36    31    1
    40    10     6    1
    41    16    11    1
    42    30    24   ar
    43    40    41    1
    44    18    19    1
    45    22    23    1
@<TRIPOS>MOLECULE
*****
 41 45 0 0 0
SMALL
GASTEIGER

@<TRIPOS>ATOM
      1 C          63.0872   87.8868   17.6886 C.3     1  UNL1        0.0312
      2 C          63.3419   87.3931   16.2953 C.2     1  UNL1        0.0136
      3 C          63.0739   85.9589   15.9470 C.2     1  UNL1        0.0107
      4 C          63.3285   85.4653   14.5537 C.2     1  UNL1        0.0509
      5 C          63.8512   86.4057   13.5085 C.2     1  UNL1        0.0613
      6 C          64.1193   87.8399   13.8568 C.2     1  UNL1        0.2246
      7 N          64.6321   88.9912   13.0435 N.2     1  UNL1       -0.0378
      8 C          64.6945   90.1965   13.9343 C.2     1  UNL1        0.3605
      9 N          64.2201   89.7901   15.2981 N.2     1  UNL1       -0.0547
     10 C          63.8646   88.3336   15.2502 C.3     1  UNL1        0.2976
     11 C          65.1510   91.5675   13.5320 C.3     1  UNL1        0.2246
     12 C          64.9415   92.0451   12.1256 C.2     1  UNL1        0.0436
     13 C          65.3981   93.4162   11.7233 C.2     1  UNL1        0.0288
     14 C          66.0641   94.3096   12.7274 C.2     1  UNL1        0.0896
     15 N          66.2736   93.8320   14.1338 N.am    1  UNL1       -0.1770
     16 C          65.8171   92.4609   14.5361 C.2     1  UNL1        0.2627
     17 O          66.0266   91.9833   15.9425 O.2     1  UNL1       -0.2719
     18 N          64.2755   91.1518   11.1215 N.pl3   1  UNL1       -0.3329
     19 H          64.8137   90.5223   10.5892 H       1  UNL1        0.1466
     20 C          62.7895   91.2175   10.9282 C.3     1  UNL1        0.1211
     21 C          61.9274   90.0625   11.3437 C.3     1  UNL1        0.1522
     22 O          61.4790   89.9360   12.7695 O.3     1  UNL1       -0.3783
     23 H          61.8314   90.6774   13.2863 H       1  UNL1        0.2109
     24 C          61.5136   89.0339   10.3333 C.ar    1  UNL1        0.0067
     25 C          60.3117   89.2731    9.4684 C.ar    1  UNL1       -0.0018
     26 C          59.8980   88.2445    8.4581 C.ar    1  UNL1        0.0006
     27 C          60.6862   86.9766    8.3126 C.ar    1  UNL1        0.0114
     28 C          61.8882   86.7374    9.1775 C.ar    1  UNL1        0.0574
     29 CL         62.6764   85.4695    9.0320 Cl      1  UNL1       -0.0823
     30 C          62.3019   87.7660   10.1878 C.ar    1  UNL1        0.0095
     31 N          63.0604   84.0310   14.2055 N.pl3   1  UNL1       -0.3073
     32 C          61.9225   83.3014   14.8558 C.3     1  UNL1        0.0933
     33 C          61.6545   81.8672   14.5075 C.3     1  UNL1        0.0510
     34 C          62.5243   81.1627   13.5090 C.3     1  UNL1        0.1188
     35 C          63.6622   81.8923   12.8587 C.3     1  UNL1        0.0510
     36 C          63.9302   83.3265   13.2070 C.3     1  UNL1        0.0933
     37 O          62.2563   79.7285   13.1607 O.3     1  UNL1       -0.3535
     38 C          62.8306   79.1416   11.9054 C.3     1  UNL1        0.1737
     39 C          62.7350   79.8961   10.6126 C.3     1  UNL1        0.1692
     40 O          62.7612   79.1557    9.3083 O.3     1  UNL1       -0.3794
     41 H          63.6296   78.7401    9.1899 H       1  UNL1        0.2105
@<TRIPOS>BOND
     1     1     2    1
     2     2     3    2
     3     3     4    1
     4     4    31    1
     5    31    32    1
     6    32    33    1
     7    33    34    1
     8    34    37    1
     9    37    38    1
    10    38    39    1
    11    39    40    1
    12    34    35    1
    13    35    36    1
    14     4     5    2
    15     5     6    1
    16     6     7    2
    17     7     8    1
    18     8    11    1
    19    11    12    1
    20    12    18    1
    21    18    20    1
    22    20    21    1
    23    21    22    1
    24    21    24    1
    25    24    25   ar
    26    25    26   ar
    27    26    27   ar
    28    27    28   ar
    29    28    29    1
    30    28    30   ar
    31    12    13    2
    32    13    14    1
    33    14    15    2
    34    15    16    1
    35    16    17    2
    36     8     9    2
    37     9    10    1
    38    10     2    1
    39    36    31    1
    40    10     6    1
    41    16    11    1
    42    30    24   ar
    43    40    41    1
    44    18    19    1
    45    22    23    1
@<TRIPOS>MOLECULE
*****
 41 45 0 0 0
SMALL
GASTEIGER

@<TRIPOS>ATOM
      1 C          59.4143   89.1032   12.1025 C.3     1  UNL1        0.0312
      2 C          59.9684   88.7220   10.7617 C.2     1  UNL1        0.0136
      3 C          59.5875   89.5076    9.5419 C.2     1  UNL1        0.0107
      4 C          60.1415   89.1264    8.2012 C.2     1  UNL1        0.0509
      5 C          61.0764   87.9596    8.0801 C.2     1  UNL1        0.0613
      6 C          61.4573   87.1741    9.2998 C.2     1  UNL1        0.2246
      7 N          62.3510   85.9843    9.4888 N.2     1  UNL1       -0.0378
      8 C          62.3493   85.6302   10.9463 C.2     1  UNL1        0.3605
      9 N          61.4546   86.6011   11.6583 N.2     1  UNL1       -0.0547
     10 C          60.9033   87.5553   10.6406 C.3     1  UNL1        0.2976
     11 C          63.1090   84.5030   11.5807 C.3     1  UNL1        0.2246
     12 C          63.5170   84.5908   13.0215 C.2     1  UNL1        0.0436
     13 C          64.2767   83.4635   13.6558 C.2     1  UNL1        0.0288
     14 C          64.6283   82.2486   12.8494 C.2     1  UNL1        0.0896
     15 N          64.2202   82.1608   11.4086 N.am    1  UNL1       -0.1770
     16 C          63.4606   83.2880   10.7743 C.2     1  UNL1        0.2627
     17 O          63.0525   83.2003    9.3336 O.2     1  UNL1       -0.2719
     18 N          63.1655   85.8057   13.8279 N.pl3   1  UNL1       -0.3329
     19 H          62.2212   86.0378   13.9821 H       1  UNL1        0.1466
     20 C          64.2525   86.6668   14.3995 C.3     1  UNL1        0.1211
     21 C          63.9252   88.0269   14.9410 C.3     1  UNL1        0.1522
     22 O          63.3993   88.1711   16.3384 O.3     1  UNL1       -0.3783
     23 H          63.3313   87.2956   16.7502 H       1  UNL1        0.2109
     24 C          64.1237   89.2426   14.0851 C.ar    1  UNL1        0.0067
     25 C          65.0491   90.3338   14.5353 C.ar    1  UNL1       -0.0018
     26 C          65.2477   91.5496   13.6794 C.ar    1  UNL1        0.0006
     27 C          64.5208   91.6741   12.3732 C.ar    1  UNL1        0.0114
     28 C          63.5954   90.5828   11.9230 C.ar    1  UNL1        0.0574
     29 CL         62.8686   90.7073   10.6167 Cl      1  UNL1       -0.0823
     30 C          63.3969   89.3671   12.7789 C.ar    1  UNL1        0.0095
     31 N          59.7606   89.9120    6.9813 N.pl3   1  UNL1       -0.3073
     32 C          58.3138   90.1375    6.6560 C.3     1  UNL1        0.0933
     33 C          57.9329   90.9230    5.4363 C.3     1  UNL1        0.0510
     34 C          58.9988   91.4831    4.5418 C.3     1  UNL1        0.1188
     35 C          60.4457   91.2576    4.8671 C.3     1  UNL1        0.0510
     36 C          60.8265   90.4721    6.0869 C.3     1  UNL1        0.0933
     37 O          58.6180   92.2687    3.3221 O.3     1  UNL1       -0.3535
     38 C          59.6840   92.8266    2.4263 C.3     1  UNL1        0.1737
     39 C          59.4037   93.0375    0.9679 C.3     1  UNL1        0.1692
     40 O          59.3224   91.8603    0.0419 O.3     1  UNL1       -0.3794
     41 H          60.1929   91.4367   -0.0197 H       1  UNL1        0.2105
@<TRIPOS>BOND
     1     1     2    1
     2     2     3    2
     3     3     4    1
     4     4    31    1
     5    31    32    1
     6    32    33    1
     7    33    34    1
     8    34    37    1
     9    37    38    1
    10    38    39    1
    11    39    40    1
    12    34    35    1
    13    35    36    1
    14     4     5    2
    15     5     6    1
    16     6     7    2
    17     7     8    1
    18     8    11    1
    19    11    12    1
    20    12    18    1
    21    18    20    1
    22    20    21    1
    23    21    22    1
    24    21    24    1
    25    24    25   ar
    26    25    26   ar
    27    26    27   ar
    28    27    28   ar
    29    28    29    1
    30    28    30   ar
    31    12    13    2
    32    13    14    1
    33    14    15    2
    34    15    16    1
    35    16    17    2
    36     8     9    2
    37     9    10    1
    38    10     2    1
    39    36    31    1
    40    10     6    1
    41    16    11    1
    42    30    24   ar
    43    40    41    1
    44    18    19    1
    45    22    23    1
@<TRIPOS>MOLECULE
*****
 41 45 0 0 0
SMALL
GASTEIGER

@<TRIPOS>ATOM
      1 C          58.8591   86.4435    8.4582 C.3     1  UNL1        0.0312
      2 C          59.6273   87.7173    8.2650 C.2     1  UNL1        0.0136
      3 C          59.3604   88.5797    7.0672 C.2     1  UNL1        0.0107
      4 C          60.1286   89.8535    6.8740 C.2     1  UNL1        0.0509
      5 C          61.1637   90.2649    7.8787 C.2     1  UNL1        0.0613
      6 C          61.4306   89.4024    9.0766 C.2     1  UNL1        0.2246
      7 N          62.3828   89.5484   10.2263 N.2     1  UNL1       -0.0378
      8 C          62.2032   88.3648   11.1300 C.2     1  UNL1        0.3605
      9 N          61.1399   87.4873   10.5389 N.2     1  UNL1       -0.0547
     10 C          60.6624   88.1286    9.2697 C.3     1  UNL1        0.2976
     11 C          62.9549   88.1043   12.4017 C.3     1  UNL1        0.2246
     12 C          63.4487   89.2533   13.2298 C.2     1  UNL1        0.0436
     13 C          64.2004   88.9928   14.5015 C.2     1  UNL1        0.0288
     14 C          64.4583   87.5833   14.9450 C.2     1  UNL1        0.0896
     15 N          63.9644   86.4342   14.1169 N.am    1  UNL1       -0.1770
     16 C          63.2127   86.6948   12.8452 C.2     1  UNL1        0.2627
     17 O          62.7189   85.5457   12.0171 O.2     1  UNL1       -0.2719
     18 N          63.1909   90.6629   12.7863 N.pl3   1  UNL1       -0.3329
     19 H          62.4047   91.1493   13.1246 H       1  UNL1        0.1466
     20 C          64.1311   91.3313   11.8275 C.3     1  UNL1        0.1211
     21 C          65.1568   92.3006   12.3358 C.3     1  UNL1        0.1522
     22 O          65.3226   92.5120   13.8115 O.3     1  UNL1       -0.3783
     23 H          64.6946   91.9496   14.2913 H       1  UNL1        0.2109
     24 C          66.0167   93.0586   11.3682 C.ar    1  UNL1        0.0067
     25 C          65.8969   94.5504   11.2677 C.ar    1  UNL1       -0.0018
     26 C          66.7568   95.3083   10.3001 C.ar    1  UNL1        0.0006
     27 C          67.7365   94.5744    9.4331 C.ar    1  UNL1        0.0114
     28 C          67.8562   93.0826    9.5337 C.ar    1  UNL1        0.0574
     29 CL         68.8359   92.3488    8.6667 Cl      1  UNL1       -0.0823
     30 C          66.9963   92.3247   10.5012 C.ar    1  UNL1        0.0095
     31 N          59.8617   90.7160    5.6760 N.pl3   1  UNL1       -0.3073
     32 C          60.9969   91.1520    4.7979 C.3     1  UNL1        0.0933
     33 C          60.7300   92.0144    3.6000 C.3     1  UNL1        0.0510
     34 C          59.3279   92.4409    3.2803 C.3     1  UNL1        0.1188
     35 C          58.1927   92.0049    4.1584 C.3     1  UNL1        0.0510
     36 C          58.4596   91.1424    5.3563 C.3     1  UNL1        0.0933
     37 O          59.0610   93.3033    2.0824 O.3     1  UNL1       -0.3535
     38 C          60.0858   93.4110    0.9924 C.3     1  UNL1        0.1737
     39 C          60.0969   92.4135   -0.1278 C.3     1  UNL1        0.1692
     40 O          58.8935   91.5540   -0.3787 O.3     1  UNL1       -0.3794
     41 H          58.7628   90.9536    0.3719 H       1  UNL1        0.2105
@<TRIPOS>BOND
     1     1     2    1
     2     2     3    2
     3     3     4    1
     4     4    31    1
     5    31    32    1
     6    32    33    1
     7    33    34    1
     8    34    37    1
     9    37    38    1
    10    38    39    1
    11    39    40    1
    12    34    35    1
    13    35    36    1
    14     4     5    2
    15     5     6    1
    16     6     7    2
    17     7     8    1
    18     8    11    1
    19    11    12    1
    20    12    18    1
    21    18    20    1
    22    20    21    1
    23    21    22    1
    24    21    24    1
    25    24    25   ar
    26    25    26   ar
    27    26    27   ar
    28    27    28   ar
    29    28    29    1
    30    28    30   ar
    31    12    13    2
    32    13    14    1
    33    14    15    2
    34    15    16    1
    35    16    17    2
    36     8     9    2
    37     9    10    1
    38    10     2    1
    39    36    31    1
    40    10     6    1
    41    16    11    1
    42    30    24   ar
    43    40    41    1
    44    18    19    1
    45    22    23    1
@<TRIPOS>MOLECULE
*****
 41 45 0 0 0
SMALL
GASTEIGER

@<TRIPOS>ATOM
      1 C          56.2972   91.2588    5.1312 C.3     1  UNL1        0.0312
      2 C          57.7630   91.3934    4.8427 C.2     1  UNL1        0.0136
      3 C          58.2278   92.2560    3.7070 C.2     1  UNL1        0.0107
      4 C          59.6935   92.3906    3.4185 C.2     1  UNL1        0.0509
      5 C          60.6947   91.6627    4.2658 C.2     1  UNL1        0.0613
      6 C          60.2299   90.8001    5.4016 C.2     1  UNL1        0.2246
      7 N          60.9774   89.9684    6.4013 N.2     1  UNL1       -0.0378
      8 C          59.9736   89.3197    7.3076 C.2     1  UNL1        0.3605
      9 N          58.6056   89.7505    6.8680 N.2     1  UNL1       -0.0547
     10 C          58.7641   90.6655    5.6900 C.3     1  UNL1        0.2976
     11 C          60.2832   88.4014    8.4525 C.3     1  UNL1        0.2246
     12 C          60.9323   88.9411    9.6924 C.2     1  UNL1        0.0436
     13 C          61.2419   88.0227   10.8374 C.2     1  UNL1        0.0288
     14 C          60.9024   86.5647   10.7424 C.2     1  UNL1        0.0896
     15 N          60.2533   86.0250    9.5025 N.am    1  UNL1       -0.1770
     16 C          59.9437   86.9434    8.3576 C.2     1  UNL1        0.2627
     17 O          59.2946   86.4037    7.1177 O.2     1  UNL1       -0.2719
     18 N          61.2718   90.3990    9.7875 N.pl3   1  UNL1       -0.3329
     19 H          60.5827   91.0779    9.6046 H       1  UNL1        0.1466
     20 C          62.6613   90.8228   10.1612 C.3     1  UNL1        0.1211
     21 C          63.0377   90.9695   11.6058 C.3     1  UNL1        0.1522
     22 O          62.0738   90.5548   12.6778 O.3     1  UNL1       -0.3783
     23 H          61.2619   90.2162   12.2692 H       1  UNL1        0.2109
     24 C          64.3778   91.5309   11.9784 C.ar    1  UNL1        0.0067
     25 C          65.1695   92.3127   10.9725 C.ar    1  UNL1       -0.0018
     26 C          66.5096   92.8741   11.3451 C.ar    1  UNL1        0.0006
     27 C          67.0581   92.6537   12.7238 C.ar    1  UNL1        0.0114
     28 C          66.2664   91.8719   13.7297 C.ar    1  UNL1        0.0574
     29 CL         66.8149   91.6515   15.1083 Cl      1  UNL1       -0.0823
     30 C          64.9263   91.3105   13.3571 C.ar    1  UNL1        0.0095
     31 N          60.1583   93.2532    2.2827 N.pl3   1  UNL1       -0.3073
     32 C          60.4469   92.6400    0.9445 C.3     1  UNL1        0.0933
     33 C          60.9116   93.5026   -0.1913 C.3     1  UNL1        0.0510
     34 C          61.0878   94.9784    0.0111 C.3     1  UNL1        0.1188
     35 C          60.7993   95.5916    1.3493 C.3     1  UNL1        0.0510
     36 C          60.3345   94.7290    2.4851 C.3     1  UNL1        0.0933
     37 O          61.5526   95.8410   -1.1245 O.3     1  UNL1       -0.3535
     38 C          63.0102   95.9003   -1.4736 C.3     1  UNL1        0.1737
     39 C          64.0240   95.2607   -0.5720 C.3     1  UNL1        0.1692
     40 O          64.4841   93.8577   -0.8367 O.3     1  UNL1       -0.3794
     41 H          63.7432   93.2449   -0.7084 H       1  UNL1        0.2105
@<TRIPOS>BOND
     1     1     2    1
     2     2     3    2
     3     3     4    1
     4     4    31    1
     5    31    32    1
     6    32    33    1
     7    33    34    1
     8    34    37    1
     9    37    38    1
    10    38    39    1
    11    39    40    1
    12    34    35    1
    13    35    36    1
    14     4     5    2
    15     5     6    1
    16     6     7    2
    17     7     8    1
    18     8    11    1
    19    11    12    1
    20    12    18    1
    21    18    20    1
    22    20    21    1
    23    21    22    1
    24    21    24    1
    25    24    25   ar
    26    25    26   ar
    27    26    27   ar
    28    27    28   ar
    29    28    29    1
    30    28    30   ar
    31    12    13    2
    32    13    14    1
    33    14    15    2
    34    15    16    1
    35    16    17    2
    36     8     9    2
    37     9    10    1
    38    10     2    1
    39    36    31    1
    40    10     6    1
    41    16    11    1
    42    30    24   ar
    43    40    41    1
    44    18    19    1
    45    22    23    1
@<TRIPOS>MOLECULE
*****
 41 45 0 0 0
SMALL
GASTEIGER

@<TRIPOS>ATOM
      1 C          58.3769   86.0228    8.2840 C.3     1  UNL1        0.0312
      2 C          59.2920   87.2073    8.1853 C.2     1  UNL1        0.0136
      3 C          59.0968   88.2170    7.0934 C.2     1  UNL1        0.0107
      4 C          60.0118   89.4013    6.9948 C.2     1  UNL1        0.0509
      5 C          61.1222   89.5761    7.9881 C.2     1  UNL1        0.0613
      6 C          61.3174   88.5664    9.0800 C.2     1  UNL1        0.2246
      7 N          62.3170   88.4739   10.1946 N.2     1  UNL1       -0.0378
      8 C          62.0197   87.2323   10.9820 C.2     1  UNL1        0.3605
      9 N          60.8363   86.5575   10.3541 N.2     1  UNL1       -0.0547
     10 C          60.4023   87.3820    9.1787 C.3     1  UNL1        0.2976
     11 C          62.7735   86.7502   12.1859 C.3     1  UNL1        0.2246
     12 C          63.4414   87.7368   13.0972 C.2     1  UNL1        0.0436
     13 C          64.1951   87.2546   14.3012 C.2     1  UNL1        0.0288
     14 C          64.2809   85.7859   14.5938 C.2     1  UNL1        0.0896
     15 N          63.6129   84.7993   13.6825 N.am    1  UNL1       -0.1770
     16 C          62.8592   85.2816   12.4785 C.2     1  UNL1        0.2627
     17 O          62.1912   84.2950   11.5672 O.2     1  UNL1       -0.2719
     18 N          63.3557   89.2054   12.8047 N.pl3   1  UNL1       -0.3329
     19 H          63.5946   89.5442   11.9117 H       1  UNL1        0.1466
     20 C          62.9060   90.1580   13.8726 C.3     1  UNL1        0.1211
     21 C          63.9145   90.9877   14.6106 C.3     1  UNL1        0.1522
     22 O          63.6970   91.3218   16.0566 O.3     1  UNL1       -0.3783
     23 H          62.8636   90.9273   16.3578 H       1  UNL1        0.2109
     24 C          65.1404   91.4834   13.9024 C.ar    1  UNL1        0.0067
     25 C          66.4793   91.4004   14.5735 C.ar    1  UNL1       -0.0018
     26 C          67.7052   91.8960   13.8654 C.ar    1  UNL1        0.0006
     27 C          67.5922   92.4747   12.4861 C.ar    1  UNL1        0.0114
     28 C          66.2533   92.5577   11.8150 C.ar    1  UNL1        0.0574
     29 CL         66.1403   93.1363   10.4358 Cl      1  UNL1       -0.0823
     30 C          65.0274   92.0620   12.5232 C.ar    1  UNL1        0.0095
     31 N          59.8166   90.4111    5.9028 N.pl3   1  UNL1       -0.3073
     32 C          60.9905   90.8769    5.0933 C.3     1  UNL1        0.0933
     33 C          60.7953   91.8866    4.0014 C.3     1  UNL1        0.0510
     34 C          59.4263   92.4305    3.7189 C.3     1  UNL1        0.1188
     35 C          58.2524   91.9648    4.5283 C.3     1  UNL1        0.0510
     36 C          58.4476   90.9551    5.6202 C.3     1  UNL1        0.0933
     37 O          59.2310   93.4402    2.6269 O.3     1  UNL1       -0.3535
     38 C          59.9926   93.3112    1.3411 C.3     1  UNL1        0.1737
     39 C          59.2660   92.9963    0.0672 C.3     1  UNL1        0.1692
     40 O          59.1483   91.5750   -0.3975 O.3     1  UNL1       -0.3794
     41 H          60.0281   91.2351   -0.6242 H       1  UNL1        0.2105
@<TRIPOS>BOND
     1     1     2    1
     2     2     3    2
     3     3     4    1
     4     4    31    1
     5    31    32    1
     6    32    33    1
     7    33    34    1
     8    34    37    1
     9    37    38    1
    10    38    39    1
    11    39    40    1
    12    34    35    1
    13    35    36    1
    14     4     5    2
    15     5     6    1
    16     6     7    2
    17     7     8    1
    18     8    11    1
    19    11    12    1
    20    12    18    1
    21    18    20    1
    22    20    21    1
    23    21    22    1
    24    21    24    1
    25    24    25   ar
    26    25    26   ar
    27    26    27   ar
    28    27    28   ar
    29    28    29    1
    30    28    30   ar
    31    12    13    2
    32    13    14    1
    33    14    15    2
    34    15    16    1
    35    16    17    2
    36     8     9    2
    37     9    10    1
    38    10     2    1
    39    36    31    1
    40    10     6    1
    41    16    11    1
    42    30    24   ar
    43    40    41    1
    44    18    19    1
    45    22    23    1
