@<TRIPOS>MOLECULE
*****
 33 36 0 0 0
SMALL
GASTEIGER

@<TRIPOS>ATOM
      1 C          62.5800   87.5933   11.0146 C.ar    1  UNL1        0.0171
      2 C          62.6092   89.0863   11.1564 C.ar    1  UNL1        0.0671
      3 N          63.1804   89.4128   12.5044 N.ar    1  UNL1       -0.3243
      4 C          63.5042   88.1216   13.1957 C.ar    1  UNL1        0.0602
      5 C          64.0890   87.8245   14.5447 C.ar    1  UNL1        0.0203
      6 C          64.3028   86.4030   14.9729 C.ar    1  UNL1        0.0387
      7 C          63.9317   85.2785   14.0521 C.ar    1  UNL1        0.1469
      8 C          63.3469   85.5755   12.7032 C.ar    1  UNL1        0.0387
      9 C          63.1332   86.9971   12.2750 C.ar    1  UNL1        0.0200
     10 C          61.0939   85.3047    7.4363 C.ar    1  UNL1        0.2250
     11 C          62.5346   85.2086    7.8426 C.ar    1  UNL1        0.0577
     12 C          63.0299   85.9715    9.0354 C.ar    1  UNL1        0.0064
     13 C          62.0847   86.8304    9.8218 C.ar    1  UNL1        0.0206
     14 C          60.6439   86.9265    9.4155 C.ar    1  UNL1        0.1021
     15 N          60.1485   86.1636    8.2228 N.ar    1  UNL1       -0.2101
     16 C          61.5704   84.0442    5.2150 C.3     1  UNL1        0.2542
     17 O          60.5985   84.5418    6.2436 O.3     1  UNL1       -0.4561
     18 C          62.1481   90.0786   10.1303 C.3     1  UNL1        0.1809
     19 O          60.6960   90.4429   10.0387 O.3     1  UNL1       -0.3760
     20 H          60.1854   89.6681    9.7561 H       1  UNL1        0.2110
     21 C          63.3908   90.7889   13.0630 C.3     1  UNL1        0.1333
     22 C          64.7819   91.3005   13.2927 C.ar    1  UNL1        0.0110
     23 C          65.4660   91.0508   14.6041 C.ar    1  UNL1       -0.0016
     24 C          66.8572   91.5624   14.8339 C.ar    1  UNL1       -0.0002
     25 C          67.5644   92.3238   13.7521 C.ar    1  UNL1        0.0008
     26 C          66.8804   92.5735   12.4407 C.ar    1  UNL1        0.0111
     27 C          65.4892   92.0619   12.2110 C.ar    1  UNL1        0.0555
     28 CL         64.8053   92.3117   10.8996 Cl      1  UNL1       -0.0825
     29 O          64.1455   83.8568   14.4804 O.3     1  UNL1       -0.4045
     30 C          62.9852   82.9080   14.5368 C.3     1  UNL1        0.5753
     31 F          61.8248   81.9591   14.5933 F       1  UNL1       -0.1328
     32 F          62.2362   83.8755   15.4045 F       1  UNL1       -0.1328
     33 F          63.7342   81.9404   13.6692 F       1  UNL1       -0.1328
@<TRIPOS>BOND
     1    16    17    1
     2    17    10    1
     3    10    11   ar
     4    11    12   ar
     5    12    13   ar
     6    13     1    1
     7     1     2   ar
     8     2    18    1
     9    18    19    1
    10     2     3   ar
    11     3    21    1
    12    21    22    1
    13    22    23   ar
    14    23    24   ar
    15    24    25   ar
    16    25    26   ar
    17    26    27   ar
    18    27    28    1
    19     3     4   ar
    20     4     5   ar
    21     5     6   ar
    22     6     7   ar
    23     7    29    1
    24    29    30    1
    25    30    31    1
    26    30    32    1
    27    30    33    1
    28     7     8   ar
    29     8     9   ar
    30    13    14   ar
    31    14    15   ar
    32    15    10   ar
    33     9     1   ar
    34    27    22   ar
    35     9     4   ar
    36    19    20    1
@<TRIPOS>MOLECULE
*****
 33 36 0 0 0
SMALL
GASTEIGER

@<TRIPOS>ATOM
      1 C          64.2166   90.3292   13.7027 C.ar    1  UNL1        0.0171
      2 C          65.1941   91.4596   13.8311 C.ar    1  UNL1        0.0671
      3 N          65.1896   92.2250   12.5410 N.ar    1  UNL1       -0.3243
      4 C          64.2093   91.5675   11.6154 C.ar    1  UNL1        0.0602
      5 C          63.7867   91.8844   10.2115 C.ar    1  UNL1        0.0203
      6 C          62.7626   91.0296    9.5256 C.ar    1  UNL1        0.0387
      7 C          62.1612   89.8579   10.2435 C.ar    1  UNL1        0.1469
      8 C          62.5839   89.5410   11.6474 C.ar    1  UNL1        0.0387
      9 C          63.6080   90.3958   12.3333 C.ar    1  UNL1        0.0200
     10 C          63.2750   87.2739   16.8696 C.ar    1  UNL1        0.2250
     11 C          62.9647   88.7218   17.1085 C.ar    1  UNL1        0.0577
     12 C          63.2785   89.7402   16.0528 C.ar    1  UNL1        0.0064
     13 C          63.9027   89.3108   14.7583 C.ar    1  UNL1        0.0206
     14 C          64.2131   87.8627   14.5194 C.ar    1  UNL1        0.1021
     15 N          63.8993   86.8443   15.5750 N.ar    1  UNL1       -0.2101
     16 C          62.6939   86.6940   19.3345 C.3     1  UNL1        0.2542
     17 O          62.9612   86.2555   17.9252 O.3     1  UNL1       -0.4561
     18 C          66.0294   91.7702   15.0377 C.3     1  UNL1        0.1809
     19 O          65.5423   92.7622   16.0519 O.3     1  UNL1       -0.3760
     20 H          65.5043   93.6439   15.6495 H       1  UNL1        0.2110
     21 C          66.0197   93.4353   12.2311 C.3     1  UNL1        0.1333
     22 C          66.7851   93.5101   10.9433 C.ar    1  UNL1        0.0110
     23 C          67.6421   92.3569   10.5121 C.ar    1  UNL1       -0.0016
     24 C          68.4076   92.4316    9.2243 C.ar    1  UNL1       -0.0002
     25 C          68.3162   93.6596    8.3677 C.ar    1  UNL1        0.0008
     26 C          67.4593   94.8128    8.7989 C.ar    1  UNL1        0.0111
     27 C          66.6938   94.7380   10.0867 C.ar    1  UNL1        0.0555
     28 CL         65.8369   95.8912   10.5178 Cl      1  UNL1       -0.0825
     29 O          61.1371   89.0030    9.5575 O.3     1  UNL1       -0.4045
     30 C          61.0411   87.5417    9.8819 C.3     1  UNL1        0.5753
     31 F          60.9452   86.0803   10.2062 F       1  UNL1       -0.1328
     32 F          62.3532   87.3031    9.1953 F       1  UNL1       -0.1328
     33 F          59.7290   87.7803   10.5684 F       1  UNL1       -0.1328
@<TRIPOS>BOND
     1    16    17    1
     2    17    10    1
     3    10    11   ar
     4    11    12   ar
     5    12    13   ar
     6    13     1    1
     7     1     2   ar
     8     2    18    1
     9    18    19    1
    10     2     3   ar
    11     3    21    1
    12    21    22    1
    13    22    23   ar
    14    23    24   ar
    15    24    25   ar
    16    25    26   ar
    17    26    27   ar
    18    27    28    1
    19     3     4   ar
    20     4     5   ar
    21     5     6   ar
    22     6     7   ar
    23     7    29    1
    24    29    30    1
    25    30    31    1
    26    30    32    1
    27    30    33    1
    28     7     8   ar
    29     8     9   ar
    30    13    14   ar
    31    14    15   ar
    32    15    10   ar
    33     9     1   ar
    34    27    22   ar
    35     9     4   ar
    36    19    20    1
@<TRIPOS>MOLECULE
*****
 33 36 0 0 0
SMALL
GASTEIGER

@<TRIPOS>ATOM
      1 C          62.8754   86.8855   12.2423 C.ar    1  UNL1        0.0171
      2 C          63.5093   87.8770   13.1724 C.ar    1  UNL1        0.0671
      3 N          63.1465   89.2536   12.6996 N.ar    1  UNL1       -0.3243
      4 C          62.2884   89.1128   11.4774 C.ar    1  UNL1        0.0602
      5 C          61.6379   90.1282   10.5853 C.ar    1  UNL1        0.0203
      6 C          60.8199   89.6800    9.4106 C.ar    1  UNL1        0.0387
      7 C          60.6523   88.2164    9.1280 C.ar    1  UNL1        0.1469
      8 C          61.3028   87.2010   10.0201 C.ar    1  UNL1        0.0387
      9 C          62.1208   87.6492   11.1948 C.ar    1  UNL1        0.0200
     10 C          63.1832   82.4060   12.5422 C.ar    1  UNL1        0.2250
     11 C          63.4029   83.0863   11.2236 C.ar    1  UNL1        0.0577
     12 C          63.3003   84.5795   11.1236 C.ar    1  UNL1        0.0064
     13 C          62.9780   85.3924   12.3423 C.ar    1  UNL1        0.0206
     14 C          62.7582   84.7120   13.6610 C.ar    1  UNL1        0.1021
     15 N          62.8608   83.2189   13.7610 N.ar    1  UNL1       -0.2101
     16 C          62.2338   80.1363   13.3772 C.3     1  UNL1        0.2542
     17 O          63.2858   80.9129   12.6422 O.3     1  UNL1       -0.4561
     18 C          64.3571   87.5495   14.3657 C.3     1  UNL1        0.1809
     19 O          63.7328   87.4560   15.7263 O.3     1  UNL1       -0.3760
     20 H          63.4072   88.3298   15.9935 H       1  UNL1        0.2110
     21 C          63.5678   90.5443   13.3371 C.3     1  UNL1        0.1333
     22 C          64.6520   91.3709   12.7118 C.ar    1  UNL1        0.0110
     23 C          64.4777   91.9097   11.3227 C.ar    1  UNL1       -0.0016
     24 C          65.5619   92.7363   10.6973 C.ar    1  UNL1       -0.0002
     25 C          66.8205   93.0242   11.4609 C.ar    1  UNL1        0.0008
     26 C          66.9948   92.4854   12.8499 C.ar    1  UNL1        0.0111
     27 C          65.9106   91.6588   13.4753 C.ar    1  UNL1        0.0555
     28 CL         66.0851   91.1200   14.8643 Cl      1  UNL1       -0.0825
     29 O          59.8343   87.7683    7.9532 O.3     1  UNL1       -0.4045
     30 C          59.8541   86.3292    7.5308 C.3     1  UNL1        0.5753
     31 F          59.8739   84.8900    7.1083 F       1  UNL1       -0.1328
     32 F          61.3468   86.3893    7.3959 F       1  UNL1       -0.1328
     33 F          58.3614   86.2691    7.6656 F       1  UNL1       -0.1328
@<TRIPOS>BOND
     1    16    17    1
     2    17    10    1
     3    10    11   ar
     4    11    12   ar
     5    12    13   ar
     6    13     1    1
     7     1     2   ar
     8     2    18    1
     9    18    19    1
    10     2     3   ar
    11     3    21    1
    12    21    22    1
    13    22    23   ar
    14    23    24   ar
    15    24    25   ar
    16    25    26   ar
    17    26    27   ar
    18    27    28    1
    19     3     4   ar
    20     4     5   ar
    21     5     6   ar
    22     6     7   ar
    23     7    29    1
    24    29    30    1
    25    30    31    1
    26    30    32    1
    27    30    33    1
    28     7     8   ar
    29     8     9   ar
    30    13    14   ar
    31    14    15   ar
    32    15    10   ar
    33     9     1   ar
    34    27    22   ar
    35     9     4   ar
    36    19    20    1
@<TRIPOS>MOLECULE
*****
 33 36 0 0 0
SMALL
GASTEIGER

@<TRIPOS>ATOM
      1 C          63.3302   89.1862   12.5923 C.ar    1  UNL1        0.0171
      2 C          62.5450   89.5590   11.3698 C.ar    1  UNL1        0.0671
      3 N          62.0080   88.2976   10.7613 N.ar    1  UNL1       -0.3243
      4 C          62.4613   87.1451   11.6076 C.ar    1  UNL1        0.0602
      5 C          62.2356   85.6665   11.4940 C.ar    1  UNL1        0.0203
      6 C          62.8270   84.7372   12.5121 C.ar    1  UNL1        0.0387
      7 C          63.6442   85.2864   13.6437 C.ar    1  UNL1        0.1469
      8 C          63.8699   86.7649   13.7573 C.ar    1  UNL1        0.0387
      9 C          63.2785   87.6943   12.7393 C.ar    1  UNL1        0.0200
     10 C          65.4659   92.0418   15.3371 C.ar    1  UNL1        0.2250
     11 C          65.9154   91.8916   13.9140 C.ar    1  UNL1        0.0577
     12 C          65.2035   90.9397   12.9991 C.ar    1  UNL1        0.0064
     13 C          64.0421   90.1381   13.5072 C.ar    1  UNL1        0.0206
     14 C          63.5925   90.2883   14.9304 C.ar    1  UNL1        0.1021
     15 N          64.3044   91.2402   15.8454 N.ar    1  UNL1       -0.2101
     16 C          67.6537   93.2159   16.1021 C.3     1  UNL1        0.2542
     17 O          66.1778   92.9937   16.2521 O.3     1  UNL1       -0.4561
     18 C          62.3338   90.9493   10.8476 C.3     1  UNL1        0.1809
     19 O          63.1816   91.4647    9.7227 O.3     1  UNL1       -0.3760
     20 H          64.1018   91.5410   10.0200 H       1  UNL1        0.2110
     21 C          61.1656   88.2048    9.5236 C.3     1  UNL1        0.1333
     22 C          61.2978   87.0201    8.6134 C.ar    1  UNL1        0.0110
     23 C          62.6215   86.3292    8.4690 C.ar    1  UNL1       -0.0016
     24 C          62.7538   85.1444    7.5587 C.ar    1  UNL1       -0.0002
     25 C          61.5625   84.6504    6.7927 C.ar    1  UNL1        0.0008
     26 C          60.2389   85.3412    6.9371 C.ar    1  UNL1        0.0111
     27 C          60.1065   86.5260    7.8474 C.ar    1  UNL1        0.0555
     28 CL         58.7829   87.2168    7.9917 Cl      1  UNL1       -0.0825
     29 O          64.2356   84.3570   14.6618 O.3     1  UNL1       -0.4045
     30 C          63.9023   82.8949   14.6258 C.3     1  UNL1        0.5753
     31 F          63.5690   81.4328   14.5897 F       1  UNL1       -0.1328
     32 F          62.9139   83.0929   15.7365 F       1  UNL1       -0.1328
     33 F          64.8908   82.6970   13.5151 F       1  UNL1       -0.1328
@<TRIPOS>BOND
     1    16    17    1
     2    17    10    1
     3    10    11   ar
     4    11    12   ar
     5    12    13   ar
     6    13     1    1
     7     1     2   ar
     8     2    18    1
     9    18    19    1
    10     2     3   ar
    11     3    21    1
    12    21    22    1
    13    22    23   ar
    14    23    24   ar
    15    24    25   ar
    16    25    26   ar
    17    26    27   ar
    18    27    28    1
    19     3     4   ar
    20     4     5   ar
    21     5     6   ar
    22     6     7   ar
    23     7    29    1
    24    29    30    1
    25    30    31    1
    26    30    32    1
    27    30    33    1
    28     7     8   ar
    29     8     9   ar
    30    13    14   ar
    31    14    15   ar
    32    15    10   ar
    33     9     1   ar
    34    27    22   ar
    35     9     4   ar
    36    19    20    1
@<TRIPOS>MOLECULE
*****
 33 36 0 0 0
SMALL
GASTEIGER

@<TRIPOS>ATOM
      1 C          63.1622   87.0148   12.6269 C.ar    1  UNL1        0.0171
      2 C          63.6589   88.0803   13.5585 C.ar    1  UNL1        0.0671
      3 N          63.3047   89.4133   12.9690 N.ar    1  UNL1       -0.3243
      4 C          62.5892   89.1717   11.6730 C.ar    1  UNL1        0.0602
      5 C          62.0064   90.1099   10.6581 C.ar    1  UNL1        0.0203
      6 C          61.3356   89.5658    9.4318 C.ar    1  UNL1        0.0387
      7 C          61.2475   88.0834    9.2204 C.ar    1  UNL1        0.1469
      8 C          61.8302   87.1451   10.2353 C.ar    1  UNL1        0.0387
      9 C          62.5011   87.6893   11.4616 C.ar    1  UNL1        0.0200
     10 C          63.5818   82.5742   13.2231 C.ar    1  UNL1        0.2250
     11 C          64.3199   83.5243   14.1190 C.ar    1  UNL1        0.0577
     12 C          64.1800   85.0045   13.9202 C.ar    1  UNL1        0.0064
     13 C          63.3021   85.5346   12.8257 C.ar    1  UNL1        0.0206
     14 C          62.5640   84.5845   11.9298 C.ar    1  UNL1        0.1021
     15 N          62.7038   83.1043   12.1285 N.ar    1  UNL1       -0.2101
     16 C          62.5363   80.1957   13.2268 C.3     1  UNL1        0.2542
     17 O          63.7217   81.0940   13.4219 O.3     1  UNL1       -0.4561
     18 C          64.3827   87.8528   14.8525 C.3     1  UNL1        0.1809
     19 O          63.6119   87.7513   16.1353 O.3     1  UNL1       -0.3760
     20 H          63.1951   88.6052   16.3304 H       1  UNL1        0.2110
     21 C          63.6122   90.7529   13.5699 C.3     1  UNL1        0.1333
     22 C          65.0259   91.2527   13.6047 C.ar    1  UNL1        0.0110
     23 C          65.8615   91.0544   14.8346 C.ar    1  UNL1       -0.0016
     24 C          67.2753   91.5542   14.8695 C.ar    1  UNL1       -0.0002
     25 C          67.8537   92.2523   13.6744 C.ar    1  UNL1        0.0008
     26 C          67.0182   92.4506   12.4446 C.ar    1  UNL1        0.0111
     27 C          65.6043   91.9508   12.4097 C.ar    1  UNL1        0.0555
     28 CL         64.7689   92.1491   11.1798 Cl      1  UNL1       -0.0825
     29 O          60.5766   87.5392    7.9940 O.3     1  UNL1       -0.4045
     30 C          59.2705   88.1165    7.5350 C.3     1  UNL1        0.5753
     31 F          57.9643   88.6938    7.0760 F       1  UNL1       -0.1328
     32 F          58.5333   87.0673    8.3132 F       1  UNL1       -0.1328
     33 F          60.0077   89.1658    6.7569 F       1  UNL1       -0.1328
@<TRIPOS>BOND
     1    16    17    1
     2    17    10    1
     3    10    11   ar
     4    11    12   ar
     5    12    13   ar
     6    13     1    1
     7     1     2   ar
     8     2    18    1
     9    18    19    1
    10     2     3   ar
    11     3    21    1
    12    21    22    1
    13    22    23   ar
    14    23    24   ar
    15    24    25   ar
    16    25    26   ar
    17    26    27   ar
    18    27    28    1
    19     3     4   ar
    20     4     5   ar
    21     5     6   ar
    22     6     7   ar
    23     7    29    1
    24    29    30    1
    25    30    31    1
    26    30    32    1
    27    30    33    1
    28     7     8   ar
    29     8     9   ar
    30    13    14   ar
    31    14    15   ar
    32    15    10   ar
    33     9     1   ar
    34    27    22   ar
    35     9     4   ar
    36    19    20    1
@<TRIPOS>MOLECULE
*****
 33 36 0 0 0
SMALL
GASTEIGER

@<TRIPOS>ATOM
      1 C          62.3889   86.9243   11.3637 C.ar    1  UNL1        0.0171
      2 C          62.7734   85.4871   11.5546 C.ar    1  UNL1        0.0671
      3 N          63.6336   85.3963   12.7801 N.ar    1  UNL1       -0.3243
      4 C          63.7808   86.7774   13.3465 C.ar    1  UNL1        0.0602
      5 C          64.5160   87.2971   14.5462 C.ar    1  UNL1        0.0203
      6 C          64.4818   88.7612   14.8706 C.ar    1  UNL1        0.0387
      7 C          63.7125   89.7056   13.9952 C.ar    1  UNL1        0.1469
      8 C          62.9774   89.1859   12.7954 C.ar    1  UNL1        0.0387
      9 C          63.0115   87.7218   12.4711 C.ar    1  UNL1        0.0200
     10 C          59.8188   88.5572    8.0502 C.ar    1  UNL1        0.2250
     11 C          59.8655   87.0796    8.3045 C.ar    1  UNL1        0.0577
     12 C          60.7222   86.5354    9.4090 C.ar    1  UNL1        0.0064
     13 C          61.5322   87.4686   10.2592 C.ar    1  UNL1        0.0206
     14 C          61.4855   88.9462   10.0049 C.ar    1  UNL1        0.1021
     15 N          60.6288   89.4905    8.9004 N.ar    1  UNL1       -0.2101
     16 C          59.5377   90.0750    5.9605 C.3     1  UNL1        0.2542
     17 O          58.9621   89.1014    6.9458 O.3     1  UNL1       -0.4561
     18 C          62.3686   84.3417   10.6746 C.3     1  UNL1        0.1809
     19 O          63.3277   83.8047    9.6540 O.3     1  UNL1       -0.3760
     20 H          63.4908   84.4799    8.9769 H       1  UNL1        0.2110
     21 C          64.2402   84.1442   13.3407 C.3     1  UNL1        0.1333
     22 C          63.4305   82.8834   13.4076 C.ar    1  UNL1        0.0110
     23 C          63.7273   81.7507   12.4699 C.ar    1  UNL1       -0.0016
     24 C          62.9176   80.4898   12.5368 C.ar    1  UNL1       -0.0002
     25 C          61.8111   80.3615   13.5414 C.ar    1  UNL1        0.0008
     26 C          61.5143   81.4940   14.4790 C.ar    1  UNL1        0.0111
     27 C          62.3240   82.7549   14.4122 C.ar    1  UNL1        0.0555
     28 CL         62.0271   83.8874   15.3499 Cl      1  UNL1       -0.0825
     29 O          63.6784   91.1697   14.3196 O.3     1  UNL1       -0.4045
     30 C          64.6728   91.7480   15.2821 C.3     1  UNL1        0.5753
     31 F          65.6673   92.3264   16.2448 F       1  UNL1       -0.1328
     32 F          63.6997   91.5502   16.4063 F       1  UNL1       -0.1328
     33 F          65.6459   91.9459   14.1579 F       1  UNL1       -0.1328
@<TRIPOS>BOND
     1    16    17    1
     2    17    10    1
     3    10    11   ar
     4    11    12   ar
     5    12    13   ar
     6    13     1    1
     7     1     2   ar
     8     2    18    1
     9    18    19    1
    10     2     3   ar
    11     3    21    1
    12    21    22    1
    13    22    23   ar
    14    23    24   ar
    15    24    25   ar
    16    25    26   ar
    17    26    27   ar
    18    27    28    1
    19     3     4   ar
    20     4     5   ar
    21     5     6   ar
    22     6     7   ar
    23     7    29    1
    24    29    30    1
    25    30    31    1
    26    30    32    1
    27    30    33    1
    28     7     8   ar
    29     8     9   ar
    30    13    14   ar
    31    14    15   ar
    32    15    10   ar
    33     9     1   ar
    34    27    22   ar
    35     9     4   ar
    36    19    20    1
@<TRIPOS>MOLECULE
*****
 33 36 0 0 0
SMALL
GASTEIGER

@<TRIPOS>ATOM
      1 C          63.5902   88.2101   12.9726 C.ar    1  UNL1        0.0171
      2 C          63.7952   86.9331   13.7324 C.ar    1  UNL1        0.0671
      3 N          63.0336   85.8485   13.0298 N.ar    1  UNL1       -0.3243
      4 C          62.3580   86.4552   11.8358 C.ar    1  UNL1        0.0602
      5 C          61.4741   85.8671   10.7762 C.ar    1  UNL1        0.0203
      6 C          60.9341   86.7386    9.6813 C.ar    1  UNL1        0.0387
      7 C          61.2781   88.1982    9.6460 C.ar    1  UNL1        0.1469
      8 C          62.1620   88.7863   10.7056 C.ar    1  UNL1        0.0387
      9 C          62.7020   87.9148   11.8005 C.ar    1  UNL1        0.0200
     10 C          65.3336   92.2231   14.0249 C.ar    1  UNL1        0.2250
     11 C          65.5430   91.0516   14.9380 C.ar    1  UNL1        0.0577
     12 C          64.9618   89.7140   14.5872 C.ar    1  UNL1        0.0064
     13 C          64.1713   89.5478   13.3234 C.ar    1  UNL1        0.0206
     14 C          63.9619   90.7193   12.4103 C.ar    1  UNL1        0.1021
     15 N          64.5431   92.0569   12.7610 N.ar    1  UNL1       -0.2101
     16 C          67.2880   93.6485   14.9729 C.3     1  UNL1        0.2542
     17 O          65.9148   93.5607   14.3757 O.3     1  UNL1       -0.4561
     18 C          64.6173   86.7695   14.9763 C.3     1  UNL1        0.1809
     19 O          65.6492   85.6838   15.0558 O.3     1  UNL1       -0.3760
     20 H          65.2107   84.8188   15.0361 H       1  UNL1        0.2110
     21 C          62.9606   84.4098   13.4477 C.3     1  UNL1        0.1333
     22 C          63.1460   83.3229   12.4307 C.ar    1  UNL1        0.0110
     23 C          63.9585   83.5813   11.1965 C.ar    1  UNL1       -0.0016
     24 C          64.1439   82.4945   10.1795 C.ar    1  UNL1       -0.0002
     25 C          63.5169   81.1492   10.3966 C.ar    1  UNL1        0.0008
     26 C          62.7044   80.8908   11.6308 C.ar    1  UNL1        0.0111
     27 C          62.5190   81.9777   12.6478 C.ar    1  UNL1        0.0555
     28 CL         61.7065   81.7192   13.8819 Cl      1  UNL1       -0.0825
     29 O          60.7380   89.0697    8.5510 O.3     1  UNL1       -0.4045
     30 C          59.5080   88.6545    7.7998 C.3     1  UNL1        0.5753
     31 F          58.2778   88.2393    7.0485 F       1  UNL1       -0.1328
     32 F          59.0081   87.9337    9.0165 F       1  UNL1       -0.1328
     33 F          60.0078   89.3753    6.5830 F       1  UNL1       -0.1328
@<TRIPOS>BOND
     1    16    17    1
     2    17    10    1
     3    10    11   ar
     4    11    12   ar
     5    12    13   ar
     6    13     1    1
     7     1     2   ar
     8     2    18    1
     9    18    19    1
    10     2     3   ar
    11     3    21    1
    12    21    22    1
    13    22    23   ar
    14    23    24   ar
    15    24    25   ar
    16    25    26   ar
    17    26    27   ar
    18    27    28    1
    19     3     4   ar
    20     4     5   ar
    21     5     6   ar
    22     6     7   ar
    23     7    29    1
    24    29    30    1
    25    30    31    1
    26    30    32    1
    27    30    33    1
    28     7     8   ar
    29     8     9   ar
    30    13    14   ar
    31    14    15   ar
    32    15    10   ar
    33     9     1   ar
    34    27    22   ar
    35     9     4   ar
    36    19    20    1
@<TRIPOS>MOLECULE
*****
 33 36 0 0 0
SMALL
GASTEIGER

@<TRIPOS>ATOM
      1 C          63.7067   87.0818   13.6111 C.ar    1  UNL1        0.0171
      2 C          64.3880   85.8020   13.9960 C.ar    1  UNL1        0.0671
      3 N          63.9911   84.7492   13.0041 N.ar    1  UNL1       -0.3243
      4 C          63.0646   85.3782   12.0062 C.ar    1  UNL1        0.0602
      5 C          62.3582   84.8244   10.8043 C.ar    1  UNL1        0.0203
      6 C          61.4761   85.7124    9.9777 C.ar    1  UNL1        0.0387
      7 C          61.3004   87.1540   10.3528 C.ar    1  UNL1        0.1469
      8 C          62.0067   87.7077   11.5546 C.ar    1  UNL1        0.0387
      9 C          62.8888   86.8198   12.3813 C.ar    1  UNL1        0.0200
     10 C          64.0554   91.0163   15.7671 C.ar    1  UNL1        0.2250
     11 C          63.4986   89.8184   16.4777 C.ar    1  UNL1        0.0577
     12 C          63.3824   88.5069   15.7590 C.ar    1  UNL1        0.0064
     13 C          63.8230   88.3932   14.3298 C.ar    1  UNL1        0.0206
     14 C          64.3799   89.5912   13.6191 C.ar    1  UNL1        0.1021
     15 N          64.4961   90.9027   14.3378 N.ar    1  UNL1       -0.2101
     16 C          65.5247   92.8840   16.8174 C.3     1  UNL1        0.2542
     17 O          64.1717   92.3278   16.4858 O.3     1  UNL1       -0.4561
     18 C          65.3051   85.6091   15.1672 C.3     1  UNL1        0.1809
     19 O          66.7800   85.4480   14.9463 O.3     1  UNL1       -0.3760
     20 H          66.9471   84.6191   14.4710 H       1  UNL1        0.2110
     21 C          64.4417   83.3184   13.0092 C.3     1  UNL1        0.1333
     22 C          63.4383   82.2167   13.1804 C.ar    1  UNL1        0.0110
     23 C          63.5043   80.9996   12.3060 C.ar    1  UNL1       -0.0016
     24 C          62.5010   79.8978   12.4771 C.ar    1  UNL1       -0.0002
     25 C          61.4315   80.0131   13.5226 C.ar    1  UNL1        0.0008
     26 C          61.3655   81.2301   14.3969 C.ar    1  UNL1        0.0111
     27 C          62.3689   82.3319   14.2258 C.ar    1  UNL1        0.0555
     28 CL         62.3028   83.5489   15.1002 Cl      1  UNL1       -0.0825
     29 O          60.4182   88.0419    9.5261 O.3     1  UNL1       -0.4045
     30 C          60.1284   89.4424    9.9786 C.3     1  UNL1        0.5753
     31 F          59.8387   90.8429   10.4310 F       1  UNL1       -0.1328
     32 F          61.0666   89.9735    8.9356 F       1  UNL1       -0.1328
     33 F          59.1903   88.9113   11.0215 F       1  UNL1       -0.1328
@<TRIPOS>BOND
     1    16    17    1
     2    17    10    1
     3    10    11   ar
     4    11    12   ar
     5    12    13   ar
     6    13     1    1
     7     1     2   ar
     8     2    18    1
     9    18    19    1
    10     2     3   ar
    11     3    21    1
    12    21    22    1
    13    22    23   ar
    14    23    24   ar
    15    24    25   ar
    16    25    26   ar
    17    26    27   ar
    18    27    28    1
    19     3     4   ar
    20     4     5   ar
    21     5     6   ar
    22     6     7   ar
    23     7    29    1
    24    29    30    1
    25    30    31    1
    26    30    32    1
    27    30    33    1
    28     7     8   ar
    29     8     9   ar
    30    13    14   ar
    31    14    15   ar
    32    15    10   ar
    33     9     1   ar
    34    27    22   ar
    35     9     4   ar
    36    19    20    1
@<TRIPOS>MOLECULE
*****
 33 36 0 0 0
SMALL
GASTEIGER

@<TRIPOS>ATOM
      1 C          63.3815   87.2503   13.0586 C.ar    1  UNL1        0.0171
      2 C          64.0407   85.9150   13.2385 C.ar    1  UNL1        0.0671
      3 N          63.5385   85.0013   12.1601 N.ar    1  UNL1       -0.3243
      4 C          62.5690   85.7719   11.3138 C.ar    1  UNL1        0.0602
      5 C          61.7621   85.3874   10.1092 C.ar    1  UNL1        0.0203
      6 C          60.8581   86.3930    9.4600 C.ar    1  UNL1        0.0387
      7 C          60.7611   87.7830   10.0153 C.ar    1  UNL1        0.1469
      8 C          61.5680   88.1675   11.2199 C.ar    1  UNL1        0.0387
      9 C          62.4720   87.1619   11.8691 C.ar    1  UNL1        0.0200
     10 C          64.0203   90.8839   15.6354 C.ar    1  UNL1        0.2250
     11 C          64.2900   90.9528   14.1615 C.ar    1  UNL1        0.0577
     12 C          64.0771   89.7416   13.3026 C.ar    1  UNL1        0.0064
     13 C          63.5944   88.4615   13.9175 C.ar    1  UNL1        0.0206
     14 C          63.3247   88.3926   15.3915 C.ar    1  UNL1        0.1021
     15 N          63.5376   89.6038   16.2504 N.ar    1  UNL1       -0.2101
     16 C          65.5916   92.7257   16.5781 C.3     1  UNL1        0.2542
     17 O          64.2332   92.0951   16.4943 O.3     1  UNL1       -0.4561
     18 C          65.0285   85.5564   14.3088 C.3     1  UNL1        0.1809
     19 O          64.5449   85.1083   15.6561 O.3     1  UNL1       -0.3760
     20 H          64.0880   85.8422   16.0962 H       1  UNL1        0.2110
     21 C          63.9361   83.5684   11.9627 C.3     1  UNL1        0.1333
     22 C          63.1327   82.4728   12.5983 C.ar    1  UNL1        0.0110
     23 C          62.5091   82.6850   13.9459 C.ar    1  UNL1       -0.0016
     24 C          61.7057   81.5893   14.5816 C.ar    1  UNL1       -0.0002
     25 C          61.5260   80.2813   13.8696 C.ar    1  UNL1        0.0008
     26 C          62.1495   80.0691   12.5220 C.ar    1  UNL1        0.0111
     27 C          62.9529   81.1648   11.8863 C.ar    1  UNL1        0.0555
     28 CL         63.5765   80.9525   10.5387 Cl      1  UNL1       -0.0825
     29 O          59.8570   88.7886    9.3660 O.3     1  UNL1       -0.4045
     30 C          59.5749   88.7042    7.8952 C.3     1  UNL1        0.5753
     31 F          59.2929   88.6197    6.4244 F       1  UNL1       -0.1328
     32 F          60.5590   89.8077    7.6431 F       1  UNL1       -0.1328
     33 F          58.5908   87.6006    8.1474 F       1  UNL1       -0.1328
@<TRIPOS>BOND
     1    16    17    1
     2    17    10    1
     3    10    11   ar
     4    11    12   ar
     5    12    13   ar
     6    13     1    1
     7     1     2   ar
     8     2    18    1
     9    18    19    1
    10     2     3   ar
    11     3    21    1
    12    21    22    1
    13    22    23   ar
    14    23    24   ar
    15    24    25   ar
    16    25    26   ar
    17    26    27   ar
    18    27    28    1
    19     3     4   ar
    20     4     5   ar
    21     5     6   ar
    22     6     7   ar
    23     7    29    1
    24    29    30    1
    25    30    31    1
    26    30    32    1
    27    30    33    1
    28     7     8   ar
    29     8     9   ar
    30    13    14   ar
    31    14    15   ar
    32    15    10   ar
    33     9     1   ar
    34    27    22   ar
    35     9     4   ar
    36    19    20    1
