@<TRIPOS>MOLECULE
*****
 43 47 0 0 0
SMALL
GASTEIGER

@<TRIPOS>ATOM
      1 C          63.6368   88.3492   14.3915 C.3     1  UNL1        0.1139
      2 C          61.4536   87.8879   10.4837 C.ar    1  UNL1       -0.0000
      3 C          61.5992   89.2450   11.1058 C.ar    1  UNL1       -0.0003
      4 C          62.3269   89.3988   12.4084 C.ar    1  UNL1       -0.0026
      5 C          62.9090   88.1955   13.0889 C.ar    1  UNL1       -0.0029
      6 C          62.7634   86.8384   12.4669 C.ar    1  UNL1       -0.0026
      7 C          62.0357   86.6845   11.1642 C.ar    1  UNL1       -0.0003
      8 C          59.6933   88.7879    7.0426 C.ar    1  UNL1        0.0534
      9 C          59.2704   87.4265    6.5759 C.ar    1  UNL1        0.0045
     10 C          59.5752   86.2189    7.4119 C.ar    1  UNL1        0.0001
     11 C          60.3030   86.3727    8.7145 C.ar    1  UNL1        0.0000
     12 C          60.7259   87.7341    9.1811 C.ar    1  UNL1        0.0001
     13 C          60.4210   88.9417    8.3452 C.ar    1  UNL1        0.0045
     14 C          57.6603   91.5588    5.0579 C.3     1  UNL1        0.1109
     15 N          57.9652   90.3512    5.8938 N.am    1  UNL1       -0.2992
     16 C          59.3885   89.9955    6.2067 C.2     1  UNL1        0.2459
     17 O          60.5068   90.8474    5.6837 O.2     1  UNL1       -0.2701
     18 H          57.2312   89.7921    6.2371 H       1  UNL1        0.1498
     19 N          63.2580   89.4506   15.3367 N.am    1  UNL1       -0.2727
     20 C          61.9352   89.4111   16.0429 C.3     1  UNL1        0.1152
     21 C          64.2021   90.5915   15.5758 C.2     1  UNL1        0.2491
     22 O          63.8234   91.6929   16.5211 O.2     1  UNL1       -0.2727
     23 C          65.5249   90.6310   14.8697 C.3     1  UNL1        0.1943
     24 N          66.1907   91.9473   14.5973 N.ar    1  UNL1       -0.2839
     25 C          67.0964   92.5568   15.6260 C.ar    1  UNL1        0.2806
     26 O          67.3363   91.8500   16.9271 O.2     1  UNL1       -0.2652
     27 C          67.7621   93.8730   15.3536 C.ar    1  UNL1        0.1595
     28 N          67.5222   94.5798   14.0525 N.ar    1  UNL1       -0.2374
     29 C          66.6165   93.9703   13.0238 C.ar    1  UNL1        0.0982
     30 C          66.3766   94.6771   11.7226 C.ar    1  UNL1        0.0328
     31 C          65.4709   94.0676   10.6939 C.ar    1  UNL1        0.0698
     32 CL         65.2310   94.7744    9.3928 Cl      1  UNL1       -0.0813
     33 C          64.8051   92.7513   10.9663 C.ar    1  UNL1        0.0697
     34 CL         63.8994   92.1419    9.9376 Cl      1  UNL1       -0.0813
     35 C          65.0450   92.0446   12.2675 C.ar    1  UNL1        0.0310
     36 C          65.9508   92.6541   13.2962 C.ar    1  UNL1        0.0815
     37 C          64.7433   87.4016   14.7489 C.3     1  UNL1        0.0968
     38 N          64.4453   85.9471   14.9626 N.3     1  UNL1       -0.2667
     39 C          63.3532   85.5358   15.9050 C.3     1  UNL1        0.1047
     40 C          63.0552   84.0814   16.1187 C.3     1  UNL1        0.1595
     41 O          63.8494   83.0381   15.3900 O.3     1  UNL1       -0.3508
     42 C          64.9415   83.4494   14.4476 C.3     1  UNL1        0.1595
     43 C          65.2394   84.9039   14.2339 C.3     1  UNL1        0.1047
@<TRIPOS>BOND
     1    14    15    1
     2    15    16   am
     3    16    17    2
     4    16     8    1
     5     8     9   ar
     6     9    10   ar
     7    10    11   ar
     8    11    12   ar
     9    12     2    1
    10     2     3   ar
    11     3     4   ar
    12     4     5   ar
    13     5     1    1
    14     1    37    1
    15    37    38    1
    16    38    39    1
    17    39    40    1
    18    40    41    1
    19    41    42    1
    20    42    43    1
    21     1    19    1
    22    19    20    1
    23    19    21   am
    24    21    22    2
    25    21    23    1
    26    23    24    1
    27    24    25   ar
    28    25    26    2
    29    25    27   ar
    30    27    28   ar
    31    28    29   ar
    32    29    30   ar
    33    30    31   ar
    34    31    32    1
    35    31    33   ar
    36    33    34    1
    37    33    35   ar
    38    35    36   ar
    39     5     6   ar
    40     6     7   ar
    41    12    13   ar
    42    13     8   ar
    43     7     2   ar
    44    43    38    1
    45    36    24   ar
    46    36    29   ar
    47    15    18    1
@<TRIPOS>MOLECULE
*****
 43 47 0 0 0
SMALL
GASTEIGER

@<TRIPOS>ATOM
      1 C          64.1810   89.8956   13.6254 C.3     1  UNL1        0.1139
      2 C          61.4414   88.9506   10.1828 C.ar    1  UNL1       -0.0000
      3 C          61.5923   90.3666   10.6544 C.ar    1  UNL1       -0.0003
      4 C          62.5055   90.6816   11.8019 C.ar    1  UNL1       -0.0026
      5 C          63.2678   89.5807   12.4779 C.ar    1  UNL1       -0.0029
      6 C          63.1169   88.1648   12.0063 C.ar    1  UNL1       -0.0026
      7 C          62.2037   87.8497   10.8588 C.ar    1  UNL1       -0.0003
      8 C          59.2468   89.3933    6.9060 C.ar    1  UNL1        0.0534
      9 C          58.7018   88.0056    6.7402 C.ar    1  UNL1        0.0045
     10 C          59.0701   86.9330    7.7219 C.ar    1  UNL1        0.0001
     11 C          59.9833   87.2480    8.8695 C.ar    1  UNL1        0.0000
     12 C          60.5282   88.6356    9.0353 C.ar    1  UNL1        0.0001
     13 C          60.1600   89.7083    8.0535 C.ar    1  UNL1        0.0045
     14 C          59.5855   92.3138    4.2403 C.3     1  UNL1        0.1109
     15 N          59.9538   91.2412    5.2220 N.am    1  UNL1       -0.2992
     16 C          58.8786   90.4659    5.9242 C.2     1  UNL1        0.2459
     17 O          57.4352   90.7633    5.6447 O.2     1  UNL1       -0.2701
     18 H          60.9011   91.0459    5.4055 H       1  UNL1        0.1498
     19 N          63.7086   89.6996   15.0355 N.am    1  UNL1       -0.2727
     20 C          63.2694   90.8799   15.8503 C.3     1  UNL1        0.1152
     21 C          63.6754   88.3231   15.6308 C.2     1  UNL1        0.2491
     22 O          63.2030   88.1270   17.0409 O.2     1  UNL1       -0.2727
     23 C          64.1145   87.1428   14.8160 C.3     1  UNL1        0.1943
     24 N          63.5899   85.7742   15.1350 N.ar    1  UNL1       -0.2839
     25 C          63.2708   85.4051   16.5534 C.ar    1  UNL1        0.2806
     26 O          63.4764   86.4046   17.6529 O.2     1  UNL1       -0.2652
     27 C          62.7462   84.0365   16.8724 C.ar    1  UNL1        0.1595
     28 N          62.5407   83.0370   15.7730 N.ar    1  UNL1       -0.2374
     29 C          62.8598   83.4061   14.3545 C.ar    1  UNL1        0.0982
     30 C          62.6542   82.4066   13.2551 C.ar    1  UNL1        0.0328
     31 C          62.9733   82.7757   11.8367 C.ar    1  UNL1        0.0698
     32 CL         62.7678   81.7762   10.7372 Cl      1  UNL1       -0.0813
     33 C          63.4979   84.1443   11.5177 C.ar    1  UNL1        0.0697
     34 CL         63.8170   84.5134   10.0993 Cl      1  UNL1       -0.0813
     35 C          63.7035   85.1438   12.6171 C.ar    1  UNL1        0.0310
     36 C          63.3844   84.7747   14.0356 C.ar    1  UNL1        0.0815
     37 C          65.5666   90.4067   13.3629 C.3     1  UNL1        0.0968
     38 N          65.7924   91.8690   13.1162 N.3     1  UNL1       -0.2667
     39 C          65.5104   92.4538   11.7639 C.3     1  UNL1        0.1047
     40 C          65.7362   93.9160   11.5172 C.3     1  UNL1        0.1595
     41 O          66.2440   94.7935   12.6228 O.3     1  UNL1       -0.3508
     42 C          66.5260   94.2087   13.9750 C.3     1  UNL1        0.1595
     43 C          66.3002   92.7464   14.2217 C.3     1  UNL1        0.1047
@<TRIPOS>BOND
     1    14    15    1
     2    15    16   am
     3    16    17    2
     4    16     8    1
     5     8     9   ar
     6     9    10   ar
     7    10    11   ar
     8    11    12   ar
     9    12     2    1
    10     2     3   ar
    11     3     4   ar
    12     4     5   ar
    13     5     1    1
    14     1    37    1
    15    37    38    1
    16    38    39    1
    17    39    40    1
    18    40    41    1
    19    41    42    1
    20    42    43    1
    21     1    19    1
    22    19    20    1
    23    19    21   am
    24    21    22    2
    25    21    23    1
    26    23    24    1
    27    24    25   ar
    28    25    26    2
    29    25    27   ar
    30    27    28   ar
    31    28    29   ar
    32    29    30   ar
    33    30    31   ar
    34    31    32    1
    35    31    33   ar
    36    33    34    1
    37    33    35   ar
    38    35    36   ar
    39     5     6   ar
    40     6     7   ar
    41    12    13   ar
    42    13     8   ar
    43     7     2   ar
    44    43    38    1
    45    36    24   ar
    46    36    29   ar
    47    15    18    1
@<TRIPOS>MOLECULE
*****
 43 47 0 0 0
SMALL
GASTEIGER

@<TRIPOS>ATOM
      1 C          60.0564   93.3505    2.0092 C.3     1  UNL1        0.1139
      2 C          59.8222   90.6005    5.5634 C.ar    1  UNL1       -0.0000
      3 C          61.1436   90.8624    4.9035 C.ar    1  UNL1       -0.0003
      4 C          61.2216   91.7791    3.7188 C.ar    1  UNL1       -0.0026
      5 C          59.9783   92.4339    3.1939 C.ar    1  UNL1       -0.0029
      6 C          58.6570   92.1720    3.8538 C.ar    1  UNL1       -0.0026
      7 C          58.5789   91.2553    5.0386 C.ar    1  UNL1       -0.0003
      8 C          60.1687   89.2251    9.2699 C.ar    1  UNL1        0.0534
      9 C          59.5881   87.8504    9.1176 C.ar    1  UNL1        0.0045
     10 C          59.0855   87.3925    7.7805 C.ar    1  UNL1        0.0001
     11 C          59.1636   88.3092    6.5958 C.ar    1  UNL1        0.0000
     12 C          59.7442   89.6838    6.7481 C.ar    1  UNL1        0.0001
     13 C          60.2468   90.1418    8.0852 C.ar    1  UNL1        0.0045
     14 C          62.5882   89.8529   12.3524 C.3     1  UNL1        0.1109
     15 N          62.0856   89.3950   11.0154 N.am    1  UNL1       -0.2992
     16 C          60.6713   89.6831   10.6069 C.2     1  UNL1        0.2459
     17 O          59.7597   90.4291   11.5355 O.2     1  UNL1       -0.2701
     18 H          62.6840   88.9053   10.4059 H       1  UNL1        0.1498
     19 N          60.5479   94.7573    2.1805 N.am    1  UNL1       -0.2727
     20 C          59.8199   95.7004    3.0918 C.3     1  UNL1        0.1152
     21 C          61.7675   95.2210    1.4404 C.2     1  UNL1        0.2491
     22 O          62.2590   96.6278    1.6117 O.2     1  UNL1       -0.2727
     23 C          62.4955   94.2780    0.5291 C.3     1  UNL1        0.1943
     24 N          63.2508   94.8101   -0.6527 N.ar    1  UNL1       -0.2839
     25 C          64.6202   95.3933   -0.4667 C.ar    1  UNL1        0.2806
     26 O          65.2343   95.4445    0.9008 O.2     1  UNL1       -0.2652
     27 C          65.3755   95.9254   -1.6484 C.ar    1  UNL1        0.1595
     28 N          64.7614   95.8742   -3.0160 N.ar    1  UNL1       -0.2374
     29 C          63.3921   95.2909   -3.2019 C.ar    1  UNL1        0.0982
     30 C          62.7780   95.2397   -4.5695 C.ar    1  UNL1        0.0328
     31 C          61.4086   94.6564   -4.7554 C.ar    1  UNL1        0.0698
     32 CL         60.7946   94.6052   -6.1230 Cl      1  UNL1       -0.0813
     33 C          60.6533   94.1243   -3.5737 C.ar    1  UNL1        0.0697
     34 CL         59.2839   93.5411   -3.7596 Cl      1  UNL1       -0.0813
     35 C          61.2673   94.1755   -2.2061 C.ar    1  UNL1        0.0310
     36 C          62.6368   94.7589   -2.0203 C.ar    1  UNL1        0.0815
     37 C          59.6429   92.8604    0.6531 C.3     1  UNL1        0.0968
     38 N          58.5588   93.5702   -0.1025 N.3     1  UNL1       -0.2667
     39 C          57.4255   92.7892   -0.6990 C.3     1  UNL1        0.1047
     40 C          56.3414   93.4990   -1.4546 C.3     1  UNL1        0.1595
     41 O          56.3906   94.9898   -1.6136 O.3     1  UNL1       -0.3508
     42 C          57.5238   95.7707   -1.0171 C.3     1  UNL1        0.1595
     43 C          58.6079   95.0609   -0.2615 C.3     1  UNL1        0.1047
@<TRIPOS>BOND
     1    14    15    1
     2    15    16   am
     3    16    17    2
     4    16     8    1
     5     8     9   ar
     6     9    10   ar
     7    10    11   ar
     8    11    12   ar
     9    12     2    1
    10     2     3   ar
    11     3     4   ar
    12     4     5   ar
    13     5     1    1
    14     1    37    1
    15    37    38    1
    16    38    39    1
    17    39    40    1
    18    40    41    1
    19    41    42    1
    20    42    43    1
    21     1    19    1
    22    19    20    1
    23    19    21   am
    24    21    22    2
    25    21    23    1
    26    23    24    1
    27    24    25   ar
    28    25    26    2
    29    25    27   ar
    30    27    28   ar
    31    28    29   ar
    32    29    30   ar
    33    30    31   ar
    34    31    32    1
    35    31    33   ar
    36    33    34    1
    37    33    35   ar
    38    35    36   ar
    39     5     6   ar
    40     6     7   ar
    41    12    13   ar
    42    13     8   ar
    43     7     2   ar
    44    43    38    1
    45    36    24   ar
    46    36    29   ar
    47    15    18    1
@<TRIPOS>MOLECULE
*****
 43 47 0 0 0
SMALL
GASTEIGER

@<TRIPOS>ATOM
      1 C          63.8205   87.7487   14.2498 C.3     1  UNL1        0.1139
      2 C          61.5131   87.5180   10.3934 C.ar    1  UNL1       -0.0000
      3 C          61.8489   88.8537   10.9878 C.ar    1  UNL1       -0.0003
      4 C          62.6180   88.9306   12.2732 C.ar    1  UNL1       -0.0026
      5 C          63.0514   87.6719   12.9644 C.ar    1  UNL1       -0.0029
      6 C          62.7156   86.3362   12.3701 C.ar    1  UNL1       -0.0026
      7 C          61.9464   86.2593   11.0845 C.ar    1  UNL1       -0.0003
      8 C          59.6832   88.6147    7.0470 C.ar    1  UNL1        0.0534
      9 C          59.2056   87.2873    6.5369 C.ar    1  UNL1        0.0045
     10 C          59.4972   86.0369    7.3124 C.ar    1  UNL1        0.0001
     11 C          60.2664   86.1138    8.5979 C.ar    1  UNL1        0.0000
     12 C          60.7439   87.4412    9.1079 C.ar    1  UNL1        0.0001
     13 C          60.4523   88.6916    8.3325 C.ar    1  UNL1        0.0045
     14 C          57.6849   91.4656    5.1418 C.3     1  UNL1        0.1109
     15 N          57.9766   90.2151    5.9172 N.am    1  UNL1       -0.2992
     16 C          59.3915   89.8652    6.2715 C.2     1  UNL1        0.2459
     17 O          60.5148   90.7656    5.8504 O.2     1  UNL1       -0.2701
     18 H          57.2393   89.6241    6.1937 H       1  UNL1        0.1498
     19 N          63.6514   88.9325   15.1554 N.am    1  UNL1       -0.2727
     20 C          63.0409   88.7562   16.5142 C.3     1  UNL1        0.1152
     21 C          64.0927   90.2926   14.7022 C.2     1  UNL1        0.2491
     22 O          63.9236   91.4764   15.6078 O.2     1  UNL1       -0.2727
     23 C          64.7032   90.4689   13.3435 C.3     1  UNL1        0.1943
     24 N          65.2790   91.7959   12.9464 N.ar    1  UNL1       -0.2839
     25 C          64.8240   92.4629   11.6822 C.ar    1  UNL1        0.2806
     26 O          63.7932   91.8028   10.8151 O.2     1  UNL1       -0.2652
     27 C          65.3998   93.7898   11.2851 C.ar    1  UNL1        0.1595
     28 N          66.4306   94.4498   12.1523 N.ar    1  UNL1       -0.2374
     29 C          66.8856   93.7829   13.4164 C.ar    1  UNL1        0.0982
     30 C          67.9163   94.4429   14.2836 C.ar    1  UNL1        0.0328
     31 C          68.3713   93.7760   15.5477 C.ar    1  UNL1        0.0698
     32 CL         69.4021   94.4360   16.4148 Cl      1  UNL1       -0.0813
     33 C          67.7955   92.4490   15.9448 C.ar    1  UNL1        0.0697
     34 CL         68.2505   91.7820   17.2090 Cl      1  UNL1       -0.0813
     35 C          66.7647   91.7890   15.0777 C.ar    1  UNL1        0.0310
     36 C          66.3098   92.4559   13.8135 C.ar    1  UNL1        0.0815
     37 C          64.7589   86.6418   14.6298 C.3     1  UNL1        0.0968
     38 N          64.2539   85.2332   14.7340 N.3     1  UNL1       -0.2667
     39 C          64.8921   84.1457   13.9215 C.3     1  UNL1        0.1047
     40 C          64.3871   82.7371   14.0257 C.3     1  UNL1        0.1595
     41 O          63.2440   82.4160   14.9425 O.3     1  UNL1       -0.3508
     42 C          62.6060   83.5035   15.7549 C.3     1  UNL1        0.1595
     43 C          63.1109   84.9121   15.6507 C.3     1  UNL1        0.1047
@<TRIPOS>BOND
     1    14    15    1
     2    15    16   am
     3    16    17    2
     4    16     8    1
     5     8     9   ar
     6     9    10   ar
     7    10    11   ar
     8    11    12   ar
     9    12     2    1
    10     2     3   ar
    11     3     4   ar
    12     4     5   ar
    13     5     1    1
    14     1    37    1
    15    37    38    1
    16    38    39    1
    17    39    40    1
    18    40    41    1
    19    41    42    1
    20    42    43    1
    21     1    19    1
    22    19    20    1
    23    19    21   am
    24    21    22    2
    25    21    23    1
    26    23    24    1
    27    24    25   ar
    28    25    26    2
    29    25    27   ar
    30    27    28   ar
    31    28    29   ar
    32    29    30   ar
    33    30    31   ar
    34    31    32    1
    35    31    33   ar
    36    33    34    1
    37    33    35   ar
    38    35    36   ar
    39     5     6   ar
    40     6     7   ar
    41    12    13   ar
    42    13     8   ar
    43     7     2   ar
    44    43    38    1
    45    36    24   ar
    46    36    29   ar
    47    15    18    1
@<TRIPOS>MOLECULE
*****
 43 47 0 0 0
SMALL
GASTEIGER

@<TRIPOS>ATOM
      1 C          61.9731   87.2743   10.6876 C.3     1  UNL1        0.1139
      2 C          64.3287   90.7141   12.3814 C.ar    1  UNL1       -0.0000
      3 C          63.7632   90.8029   10.9948 C.ar    1  UNL1       -0.0003
      4 C          62.9780   89.6563   10.4303 C.ar    1  UNL1       -0.0026
      5 C          62.7583   88.4209   11.2522 C.ar    1  UNL1       -0.0029
      6 C          63.3237   88.3321   12.6387 C.ar    1  UNL1       -0.0026
      7 C          64.1090   89.4787   13.2033 C.ar    1  UNL1       -0.0003
      8 C          66.1634   94.2213   12.6701 C.ar    1  UNL1        0.0534
      9 C          66.6843   94.1539   14.0752 C.ar    1  UNL1        0.0045
     10 C          66.4200   92.9399   14.9156 C.ar    1  UNL1        0.0001
     11 C          65.6348   91.7932   14.3510 C.ar    1  UNL1        0.0000
     12 C          65.1139   91.8607   12.9460 C.ar    1  UNL1        0.0001
     13 C          65.3782   93.0747   12.1055 C.ar    1  UNL1        0.0045
     14 C          67.2968   96.4996    9.6247 C.3     1  UNL1        0.1109
     15 N          67.0325   95.2856   10.4651 N.am    1  UNL1       -0.2992
     16 C          66.4277   95.4353   11.8296 C.2     1  UNL1        0.2459
     17 O          66.0873   96.7989   12.3537 O.2     1  UNL1       -0.2701
     18 H          67.2559   94.3906   10.1211 H       1  UNL1        0.1498
     19 N          62.6805   86.0312   10.2356 N.am    1  UNL1       -0.2727
     20 C          62.6179   85.6139    8.7962 C.3     1  UNL1        0.1152
     21 C          63.4507   85.2054   11.2231 C.2     1  UNL1        0.2491
     22 O          64.1581   83.9624   10.7711 O.2     1  UNL1       -0.2727
     23 C          63.5133   85.6228   12.6625 C.3     1  UNL1        0.1943
     24 N          63.1919   84.6348   13.7445 N.ar    1  UNL1       -0.2839
     25 C          63.0798   85.0922   15.1686 C.ar    1  UNL1        0.2806
     26 O          63.2890   86.5376   15.5108 O.2     1  UNL1       -0.2652
     27 C          62.7584   84.1043   16.2506 C.ar    1  UNL1        0.1595
     28 N          62.5492   82.6589   15.9084 N.ar    1  UNL1       -0.2374
     29 C          62.6613   82.2015   14.4843 C.ar    1  UNL1        0.0982
     30 C          62.4521   80.7561   14.1421 C.ar    1  UNL1        0.0328
     31 C          62.5643   80.2986   12.7180 C.ar    1  UNL1        0.0698
     32 CL         62.3551   78.8532   12.3759 Cl      1  UNL1       -0.0813
     33 C          62.8857   81.2866   11.6360 C.ar    1  UNL1        0.0697
     34 CL         62.9979   80.8291   10.2119 Cl      1  UNL1       -0.0813
     35 C          63.0949   82.7320   11.9782 C.ar    1  UNL1        0.0310
     36 C          62.9827   83.1894   13.4024 C.ar    1  UNL1        0.0815
     37 C          60.4804   87.3708   10.5750 C.3     1  UNL1        0.0968
     38 N          59.8522   87.8062    9.2844 N.3     1  UNL1       -0.2667
     39 C          59.1122   86.8132    8.4379 C.3     1  UNL1        0.1047
     40 C          58.4840   87.2486    7.1472 C.3     1  UNL1        0.1595
     41 O          58.5959   88.6770    6.7030 O.3     1  UNL1       -0.3508
     42 C          59.3359   89.6699    7.5495 C.3     1  UNL1        0.1595
     43 C          59.9640   89.2345    8.8402 C.3     1  UNL1        0.1047
@<TRIPOS>BOND
     1    14    15    1
     2    15    16   am
     3    16    17    2
     4    16     8    1
     5     8     9   ar
     6     9    10   ar
     7    10    11   ar
     8    11    12   ar
     9    12     2    1
    10     2     3   ar
    11     3     4   ar
    12     4     5   ar
    13     5     1    1
    14     1    37    1
    15    37    38    1
    16    38    39    1
    17    39    40    1
    18    40    41    1
    19    41    42    1
    20    42    43    1
    21     1    19    1
    22    19    20    1
    23    19    21   am
    24    21    22    2
    25    21    23    1
    26    23    24    1
    27    24    25   ar
    28    25    26    2
    29    25    27   ar
    30    27    28   ar
    31    28    29   ar
    32    29    30   ar
    33    30    31   ar
    34    31    32    1
    35    31    33   ar
    36    33    34    1
    37    33    35   ar
    38    35    36   ar
    39     5     6   ar
    40     6     7   ar
    41    12    13   ar
    42    13     8   ar
    43     7     2   ar
    44    43    38    1
    45    36    24   ar
    46    36    29   ar
    47    15    18    1
@<TRIPOS>MOLECULE
*****
 43 47 0 0 0
SMALL
GASTEIGER

@<TRIPOS>ATOM
      1 C          63.8945   89.4801   14.0038 C.3     1  UNL1        0.1139
      2 C          61.3260   88.5322   10.4325 C.ar    1  UNL1       -0.0000
      3 C          62.5411   87.7023   10.7240 C.ar    1  UNL1       -0.0003
      4 C          63.3973   88.0183   11.9144 C.ar    1  UNL1       -0.0026
      5 C          63.0384   89.1641   12.8134 C.ar    1  UNL1       -0.0029
      6 C          61.8233   89.9940   12.5220 C.ar    1  UNL1       -0.0026
      7 C          60.9671   89.6780   11.3316 C.ar    1  UNL1       -0.0003
      8 C          59.3069   88.9681    7.0439 C.ar    1  UNL1        0.0534
      9 C          58.7576   87.5842    6.8612 C.ar    1  UNL1        0.0045
     10 C          59.0644   86.5164    7.8690 C.ar    1  UNL1        0.0001
     11 C          59.9206   86.8325    9.0595 C.ar    1  UNL1        0.0000
     12 C          60.4699   88.2162    9.2421 C.ar    1  UNL1        0.0001
     13 C          60.1631   89.2840    8.2343 C.ar    1  UNL1        0.0045
     14 C          57.2729   91.5216    4.7872 C.3     1  UNL1        0.1109
     15 N          57.5798   90.4538    5.7950 N.am    1  UNL1       -0.2992
     16 C          59.0001   90.0359    6.0361 C.2     1  UNL1        0.2459
     17 O          60.1135   90.6858    5.2694 O.2     1  UNL1       -0.2701
     18 H          56.8490   90.0272    6.2982 H       1  UNL1        0.1498
     19 N          64.9453   88.5076   14.4513 N.am    1  UNL1       -0.2727
     20 C          66.3013   89.0032   14.8579 C.3     1  UNL1        0.1152
     21 C          64.6399   87.0396   14.4921 C.2     1  UNL1        0.2491
     22 O          65.6906   86.0671   14.9396 O.2     1  UNL1       -0.2727
     23 C          63.2838   86.5440   14.0855 C.3     1  UNL1        0.1943
     24 N          62.8888   85.1244   14.3661 N.ar    1  UNL1       -0.2839
     25 C          62.4175   84.7337   15.7355 C.ar    1  UNL1        0.2806
     26 O          62.3411   85.7627   16.8243 O.2     1  UNL1       -0.2652
     27 C          62.0225   83.3141   16.0161 C.ar    1  UNL1        0.1595
     28 N          62.0989   82.2852   14.9273 N.ar    1  UNL1       -0.2374
     29 C          62.5702   82.6759   13.5579 C.ar    1  UNL1        0.0982
     30 C          62.6466   81.6469   12.4691 C.ar    1  UNL1        0.0328
     31 C          63.1179   82.0376   11.0997 C.ar    1  UNL1        0.0698
     32 CL         63.1942   81.0087   10.0109 Cl      1  UNL1       -0.0813
     33 C          63.5129   83.4572   10.8191 C.ar    1  UNL1        0.0697
     34 CL         63.9842   83.8479    9.4498 Cl      1  UNL1       -0.0813
     35 C          63.4365   84.4862   11.9079 C.ar    1  UNL1        0.0310
     36 C          62.9651   84.0954   13.2773 C.ar    1  UNL1        0.0815
     37 C          63.6999   90.7686   14.7469 C.3     1  UNL1        0.0968
     38 N          64.8093   91.7765   14.8037 N.3     1  UNL1       -0.2667
     39 C          65.4167   92.1498   16.1235 C.3     1  UNL1        0.1047
     40 C          66.5261   93.1577   16.1802 C.3     1  UNL1        0.1595
     41 O          67.0281   93.7924   14.9172 O.3     1  UNL1       -0.3508
     42 C          66.4207   93.4192   13.5975 C.3     1  UNL1        0.1595
     43 C          65.3113   92.4112   13.5407 C.3     1  UNL1        0.1047
@<TRIPOS>BOND
     1    14    15    1
     2    15    16   am
     3    16    17    2
     4    16     8    1
     5     8     9   ar
     6     9    10   ar
     7    10    11   ar
     8    11    12   ar
     9    12     2    1
    10     2     3   ar
    11     3     4   ar
    12     4     5   ar
    13     5     1    1
    14     1    37    1
    15    37    38    1
    16    38    39    1
    17    39    40    1
    18    40    41    1
    19    41    42    1
    20    42    43    1
    21     1    19    1
    22    19    20    1
    23    19    21   am
    24    21    22    2
    25    21    23    1
    26    23    24    1
    27    24    25   ar
    28    25    26    2
    29    25    27   ar
    30    27    28   ar
    31    28    29   ar
    32    29    30   ar
    33    30    31   ar
    34    31    32    1
    35    31    33   ar
    36    33    34    1
    37    33    35   ar
    38    35    36   ar
    39     5     6   ar
    40     6     7   ar
    41    12    13   ar
    42    13     8   ar
    43     7     2   ar
    44    43    38    1
    45    36    24   ar
    46    36    29   ar
    47    15    18    1
@<TRIPOS>MOLECULE
*****
 43 47 0 0 0
SMALL
GASTEIGER

@<TRIPOS>ATOM
      1 C          65.5269   92.6755   12.6703 C.3     1  UNL1        0.1139
      2 C          62.5898   89.8509   10.7610 C.ar    1  UNL1       -0.0000
      3 C          63.6687   90.4838    9.9329 C.ar    1  UNL1       -0.0003
      4 C          64.6477   91.4253   10.5694 C.ar    1  UNL1       -0.0026
      5 C          64.5479   91.7340   12.0339 C.ar    1  UNL1       -0.0029
      6 C          63.4692   91.1011   12.8620 C.ar    1  UNL1       -0.0026
      7 C          62.4901   90.1595   12.2255 C.ar    1  UNL1       -0.0003
      8 C          61.1264   86.8035    8.6822 C.ar    1  UNL1        0.0534
      9 C          59.6528   87.0264    8.8517 C.ar    1  UNL1        0.0045
     10 C          59.1582   88.1908    9.6576 C.ar    1  UNL1        0.0001
     11 C          60.1372   89.1323   10.2940 C.ar    1  UNL1        0.0000
     12 C          61.6108   88.9094   10.1246 C.ar    1  UNL1        0.0001
     13 C          62.1054   87.7450    9.3186 C.ar    1  UNL1        0.0045
     14 C          61.3406   84.0072    5.8742 C.3     1  UNL1        0.1109
     15 N          60.8460   85.1716    6.6801 N.am    1  UNL1       -0.2992
     16 C          61.6210   85.6391    7.8763 C.2     1  UNL1        0.2459
     17 O          62.8906   84.9421    8.2665 O.2     1  UNL1       -0.2701
     18 H          60.0127   85.6291    6.4239 H       1  UNL1        0.1498
     19 N          66.5228   92.1610   13.6671 N.am    1  UNL1       -0.2727
     20 C          67.7803   92.9326   13.9375 C.3     1  UNL1        0.1152
     21 C          66.2612   90.8748   14.3933 C.2     1  UNL1        0.2491
     22 O          67.2571   90.3604   15.3901 O.2     1  UNL1       -0.2727
     23 C          65.0036   90.1032   14.1229 C.3     1  UNL1        0.1943
     24 N          64.2435   89.4857   15.2591 N.ar    1  UNL1       -0.2839
     25 C          63.6873   90.3535   16.3488 C.ar    1  UNL1        0.2806
     26 O          63.8911   91.8388   16.3023 O.2     1  UNL1       -0.2652
     27 C          62.9272   89.7359   17.4849 C.ar    1  UNL1        0.1595
     28 N          62.7235   88.2505   17.5314 N.ar    1  UNL1       -0.2374
     29 C          63.2797   87.3827   16.4418 C.ar    1  UNL1        0.0982
     30 C          63.0759   85.8974   16.4882 C.ar    1  UNL1        0.0328
     31 C          63.6322   85.0296   15.3986 C.ar    1  UNL1        0.0698
     32 CL         63.4284   83.5442   15.4450 Cl      1  UNL1       -0.0813
     33 C          64.3923   85.6471   14.2623 C.ar    1  UNL1        0.0697
     34 CL         64.9486   84.7793   13.1726 Cl      1  UNL1       -0.0813
     35 C          64.5961   87.1325   14.2158 C.ar    1  UNL1        0.0310
     36 C          64.0398   88.0003   15.3056 C.ar    1  UNL1        0.0815
     37 C          65.5100   94.1315   12.3100 C.3     1  UNL1        0.0968
     38 N          66.2644   94.6153   11.1072 N.3     1  UNL1       -0.2667
     39 C          67.1358   93.6676   10.3373 C.3     1  UNL1        0.1047
     40 C          67.8902   94.1514    9.1345 C.3     1  UNL1        0.1595
     41 O          67.7731   95.5828    8.7014 O.3     1  UNL1       -0.3508
     42 C          66.9017   96.5303    9.4713 C.3     1  UNL1        0.1595
     43 C          66.1474   96.0466   10.6742 C.3     1  UNL1        0.1047
@<TRIPOS>BOND
     1    14    15    1
     2    15    16   am
     3    16    17    2
     4    16     8    1
     5     8     9   ar
     6     9    10   ar
     7    10    11   ar
     8    11    12   ar
     9    12     2    1
    10     2     3   ar
    11     3     4   ar
    12     4     5   ar
    13     5     1    1
    14     1    37    1
    15    37    38    1
    16    38    39    1
    17    39    40    1
    18    40    41    1
    19    41    42    1
    20    42    43    1
    21     1    19    1
    22    19    20    1
    23    19    21   am
    24    21    22    2
    25    21    23    1
    26    23    24    1
    27    24    25   ar
    28    25    26    2
    29    25    27   ar
    30    27    28   ar
    31    28    29   ar
    32    29    30   ar
    33    30    31   ar
    34    31    32    1
    35    31    33   ar
    36    33    34    1
    37    33    35   ar
    38    35    36   ar
    39     5     6   ar
    40     6     7   ar
    41    12    13   ar
    42    13     8   ar
    43     7     2   ar
    44    43    38    1
    45    36    24   ar
    46    36    29   ar
    47    15    18    1
@<TRIPOS>MOLECULE
*****
 43 47 0 0 0
SMALL
GASTEIGER

@<TRIPOS>ATOM
      1 C          61.8095   86.0143    9.7323 C.3     1  UNL1        0.1139
      2 C          59.8750   89.0101    6.9879 C.ar    1  UNL1       -0.0000
      3 C          59.5468   87.5522    6.8576 C.ar    1  UNL1       -0.0003
      4 C          60.1917   86.5536    7.7724 C.ar    1  UNL1       -0.0026
      5 C          61.1647   87.0128    8.8175 C.ar    1  UNL1       -0.0029
      6 C          61.4929   88.4707    8.9479 C.ar    1  UNL1       -0.0026
      7 C          60.8480   89.4693    8.0330 C.ar    1  UNL1       -0.0003
      8 C          59.4344   91.8755    4.2776 C.ar    1  UNL1        0.0534
      9 C          57.9404   92.0059    4.2434 C.ar    1  UNL1        0.0045
     10 C          57.0913   91.1378    5.1239 C.ar    1  UNL1        0.0001
     11 C          57.7363   90.1391    6.0388 C.ar    1  UNL1        0.0000
     12 C          59.2302   90.0087    6.0730 C.ar    1  UNL1        0.0001
     13 C          60.0792   90.8769    5.1925 C.ar    1  UNL1        0.0045
     14 C          62.4520   93.1064    2.0130 C.3     1  UNL1        0.1109
     15 N          61.6030   92.2382    2.8935 N.am    1  UNL1       -0.2992
     16 C          60.2834   92.7436    3.3971 C.2     1  UNL1        0.2459
     17 O          59.8130   94.1171    3.0201 O.2     1  UNL1       -0.2701
     18 H          61.9117   91.3368    3.1410 H       1  UNL1        0.1498
     19 N          62.5629   84.8501    9.1603 N.am    1  UNL1       -0.2727
     20 C          62.2992   84.4049    7.7524 C.3     1  UNL1        0.1152
     21 C          63.5801   84.1312    9.9963 C.2     1  UNL1        0.2491
     22 O          64.3334   82.9671    9.4242 O.2     1  UNL1       -0.2727
     23 C          63.8438   84.5765   11.4041 C.3     1  UNL1        0.1943
     24 N          63.2747   83.8009   12.5551 N.ar    1  UNL1       -0.2839
     25 C          62.7823   82.3997   12.3449 C.ar    1  UNL1        0.2806
     26 O          62.8589   81.7741   10.9838 O.2     1  UNL1       -0.2652
     27 C          62.2134   81.6241   13.4959 C.ar    1  UNL1        0.1595
     28 N          62.1367   82.2498   14.8570 N.ar    1  UNL1       -0.2374
     29 C          62.6291   83.6509   15.0672 C.ar    1  UNL1        0.0982
     30 C          62.5525   84.2765   16.4284 C.ar    1  UNL1        0.0328
     31 C          63.0449   85.6777   16.6386 C.ar    1  UNL1        0.0698
     32 CL         62.9683   86.3033   17.9997 Cl      1  UNL1       -0.0813
     33 C          63.6140   86.4533   15.4876 C.ar    1  UNL1        0.0697
     34 CL         64.1063   87.8545   15.6978 Cl      1  UNL1       -0.0813
     35 C          63.6906   85.8277   14.1264 C.ar    1  UNL1        0.0310
     36 C          63.1981   84.4265   13.9163 C.ar    1  UNL1        0.0815
     37 C          61.7010   86.1798   11.2193 C.3     1  UNL1        0.0968
     38 N          61.6768   87.5535   11.8212 N.3     1  UNL1       -0.2667
     39 C          62.9610   88.2261   12.2067 C.3     1  UNL1        0.1047
     40 C          62.9368   89.5998   12.8086 C.3     1  UNL1        0.1595
     41 O          61.6285   90.3009   13.0250 O.3     1  UNL1       -0.3508
     42 C          60.3444   89.6283   12.6396 C.3     1  UNL1        0.1595
     43 C          60.3686   88.2546   12.0376 C.3     1  UNL1        0.1047
@<TRIPOS>BOND
     1    14    15    1
     2    15    16   am
     3    16    17    2
     4    16     8    1
     5     8     9   ar
     6     9    10   ar
     7    10    11   ar
     8    11    12   ar
     9    12     2    1
    10     2     3   ar
    11     3     4   ar
    12     4     5   ar
    13     5     1    1
    14     1    37    1
    15    37    38    1
    16    38    39    1
    17    39    40    1
    18    40    41    1
    19    41    42    1
    20    42    43    1
    21     1    19    1
    22    19    20    1
    23    19    21   am
    24    21    22    2
    25    21    23    1
    26    23    24    1
    27    24    25   ar
    28    25    26    2
    29    25    27   ar
    30    27    28   ar
    31    28    29   ar
    32    29    30   ar
    33    30    31   ar
    34    31    32    1
    35    31    33   ar
    36    33    34    1
    37    33    35   ar
    38    35    36   ar
    39     5     6   ar
    40     6     7   ar
    41    12    13   ar
    42    13     8   ar
    43     7     2   ar
    44    43    38    1
    45    36    24   ar
    46    36    29   ar
    47    15    18    1
@<TRIPOS>MOLECULE
*****
 43 47 0 0 0
SMALL
GASTEIGER

@<TRIPOS>ATOM
      1 C          65.5070   92.4985   12.6641 C.3     1  UNL1        0.1139
      2 C          62.4286   90.1119   10.4107 C.ar    1  UNL1       -0.0000
      3 C          63.4650   90.8962    9.6619 C.ar    1  UNL1       -0.0003
      4 C          64.4911   91.6918   10.4130 C.ar    1  UNL1       -0.0026
      5 C          64.4809   91.7030   11.9130 C.ar    1  UNL1       -0.0029
      6 C          63.4445   90.9187   12.6618 C.ar    1  UNL1       -0.0026
      7 C          62.4183   90.1231   11.9107 C.ar    1  UNL1       -0.0003
      8 C          59.5953   89.1612    7.7995 C.ar    1  UNL1        0.0534
      9 C          59.3503   87.7252    8.1574 C.ar    1  UNL1        0.0045
     10 C          60.1314   87.0848    9.2663 C.ar    1  UNL1        0.0001
     11 C          61.1575   87.8804   10.0175 C.ar    1  UNL1        0.0000
     12 C          61.4025   89.3163    9.6596 C.ar    1  UNL1        0.0001
     13 C          60.6214   89.9567    8.5507 C.ar    1  UNL1        0.0045
     14 C          58.6683   91.5029    4.7324 C.3     1  UNL1        0.1109
     15 N          59.4494   90.8625    5.8414 N.am    1  UNL1       -0.2992
     16 C          58.8142   89.8016    6.6906 C.2     1  UNL1        0.2459
     17 O          57.3980   89.3811    6.4308 O.2     1  UNL1       -0.2701
     18 H          60.3789   91.1385    6.0119 H       1  UNL1        0.1498
     19 N          66.5030   91.7997   13.5413 N.am    1  UNL1       -0.2727
     20 C          67.8942   92.3437   13.6774 C.3     1  UNL1        0.1152
     21 C          66.1079   90.5568   14.2823 C.2     1  UNL1        0.2491
     22 O          67.1040   89.8579   15.1595 O.2     1  UNL1       -0.2727
     23 C          64.7167   90.0127   14.1461 C.3     1  UNL1        0.1943
     24 N          64.0615   89.3290   15.3095 N.ar    1  UNL1       -0.2839
     25 C          63.5643   90.1369   16.4714 C.ar    1  UNL1        0.2806
     26 O          63.7222   91.6285   16.4700 O.2     1  UNL1       -0.2652
     27 C          62.9092   89.4531   17.6346 C.ar    1  UNL1        0.1595
     28 N          62.7513   87.9614   17.6360 N.ar    1  UNL1       -0.2374
     29 C          63.2485   87.1535   16.4741 C.ar    1  UNL1        0.0982
     30 C          63.0906   85.6619   16.4755 C.ar    1  UNL1        0.0328
     31 C          63.5878   84.8540   15.3136 C.ar    1  UNL1        0.0698
     32 CL         63.4299   83.3623   15.3150 Cl      1  UNL1       -0.0813
     33 C          64.2430   85.5377   14.1503 C.ar    1  UNL1        0.0697
     34 CL         64.7402   84.7299   12.9884 Cl      1  UNL1       -0.0813
     35 C          64.4009   87.0294   14.1489 C.ar    1  UNL1        0.0310
     36 C          63.9036   87.8373   15.3109 C.ar    1  UNL1        0.0815
     37 C          65.5370   93.9930   12.5380 C.3     1  UNL1        0.0968
     38 N          66.2357   94.6337   11.3756 N.3     1  UNL1       -0.2667
     39 C          66.1324   96.1149   11.1621 C.3     1  UNL1        0.1047
     40 C          66.8311   96.7556    9.9996 C.3     1  UNL1        0.1595
     41 O          67.6331   95.9151    9.0506 O.3     1  UNL1       -0.3508
     42 C          67.7363   94.4340    9.2642 C.3     1  UNL1        0.1595
     43 C          67.0377   93.7933   10.4266 C.3     1  UNL1        0.1047
@<TRIPOS>BOND
     1    14    15    1
     2    15    16   am
     3    16    17    2
     4    16     8    1
     5     8     9   ar
     6     9    10   ar
     7    10    11   ar
     8    11    12   ar
     9    12     2    1
    10     2     3   ar
    11     3     4   ar
    12     4     5   ar
    13     5     1    1
    14     1    37    1
    15    37    38    1
    16    38    39    1
    17    39    40    1
    18    40    41    1
    19    41    42    1
    20    42    43    1
    21     1    19    1
    22    19    20    1
    23    19    21   am
    24    21    22    2
    25    21    23    1
    26    23    24    1
    27    24    25   ar
    28    25    26    2
    29    25    27   ar
    30    27    28   ar
    31    28    29   ar
    32    29    30   ar
    33    30    31   ar
    34    31    32    1
    35    31    33   ar
    36    33    34    1
    37    33    35   ar
    38    35    36   ar
    39     5     6   ar
    40     6     7   ar
    41    12    13   ar
    42    13     8   ar
    43     7     2   ar
    44    43    38    1
    45    36    24   ar
    46    36    29   ar
    47    15    18    1
