@<TRIPOS>MOLECULE
*****
 34 38 0 0 0
SMALL
GASTEIGER

@<TRIPOS>ATOM
      1 C          60.8841   87.3711    8.9475 C.ar    1  UNL1        0.0291
      2 C          61.0072   88.8449    9.1980 C.ar    1  UNL1        0.0036
      3 C          60.4218   89.8229    8.2228 C.ar    1  UNL1        0.0152
      4 C          59.7132   89.3270    6.9972 C.ar    1  UNL1        0.0593
      5 C          59.5901   87.8532    6.7468 C.ar    1  UNL1        0.0446
      6 C          60.1755   86.8753    7.7219 C.ar    1  UNL1        0.1414
      7 F          60.0524   85.4014    7.4715 F       1  UNL1       -0.2041
      8 C          62.6403   84.4372   11.8729 C.ar    1  UNL1        0.1178
      9 C          62.9473   84.3126   10.4099 C.ar    1  UNL1        0.0221
     10 C          62.3619   85.2905    9.4348 C.ar    1  UNL1        0.0033
     11 C          61.4695   86.3931    9.9227 C.ar    1  UNL1        0.0213
     12 C          61.1626   86.5178   11.3856 C.ar    1  UNL1        0.0990
     13 N          61.7480   85.5398   12.3607 N.ar    1  UNL1       -0.2409
     14 C          63.2258   83.4592   12.8480 C.2     1  UNL1        0.2133
     15 O          62.7545   82.0352   12.8564 O.2     1  UNL1       -0.2877
     16 C          64.2824   83.9053   13.8147 C.3     1  UNL1        0.1784
     17 C          62.6151   86.5616   18.0627 C.3     1  UNL1        0.0538
     18 C          63.2283   86.2378   16.7327 C.ar    1  UNL1        0.0783
     19 C          63.3019   84.8781   16.1033 C.ar    1  UNL1        0.0923
     20 N          63.9947   85.0168   14.7801 N.ar    1  UNL1       -0.3006
     21 C          64.3493   86.4621   14.5916 C.ar    1  UNL1        0.1786
     22 N          63.8756   87.2167   15.7984 N.ar    1  UNL1       -0.2283
     23 N          59.1278   90.3049    6.0221 N.am    1  UNL1       -0.2212
     24 C          59.8995   91.2591    5.1594 C.3     1  UNL1        0.1471
     25 C          58.9166   92.0442    4.3425 C.3     1  UNL1        0.2149
     26 O          57.5374   91.5754    4.7004 O.3     1  UNL1       -0.4342
     27 C          57.6680   90.5004    5.7384 C.2     1  UNL1        0.4088
     28 O          56.5372   89.7523    6.3800 O.2     1  UNL1       -0.2258
     29 C          59.2536   93.1110    3.3433 C.3     1  UNL1        0.1745
     30 N          60.2323   92.8256    2.2429 N.ar    1  UNL1       -0.2264
     31 C          59.8945   92.6016    0.7987 C.ar    1  UNL1        0.1193
     32 C          61.1740   92.3518    0.0568 C.ar    1  UNL1        0.1441
     33 N          62.3026   92.4214    1.0425 N.ar    1  UNL1       -0.1271
     34 N          61.7206   92.7142    2.3936 N.ar    1  UNL1       -0.0636
@<TRIPOS>BOND
     1    17    18    1
     2    18    19   ar
     3    19    20   ar
     4    20    16    1
     5    16    14    1
     6    14    15    2
     7    14     8    1
     8     8     9   ar
     9     9    10   ar
    10    10    11   ar
    11    11     1    1
    12     1     2   ar
    13     2     3   ar
    14     3     4   ar
    15     4    23    1
    16    23    24    1
    17    24    25    1
    18    25    29    1
    19    29    30    1
    20    30    31   ar
    21    31    32   ar
    22    32    33   ar
    23    33    34   ar
    24    25    26    1
    25    26    27    1
    26    27    28    2
    27     4     5   ar
    28     5     6   ar
    29     6     7    1
    30    11    12   ar
    31    12    13   ar
    32    20    21   ar
    33    21    22   ar
    34    22    18   ar
    35    13     8   ar
    36     6     1   ar
    37    27    23   am
    38    34    30   ar
@<TRIPOS>MOLECULE
*****
 34 38 0 0 0
SMALL
GASTEIGER

@<TRIPOS>ATOM
      1 C          62.1286   93.2305    2.0719 C.ar    1  UNL1        0.0291
      2 C          62.7557   92.0757    2.7952 C.ar    1  UNL1        0.0036
      3 C          61.9611   91.3033    3.8063 C.ar    1  UNL1        0.0152
      4 C          60.5395   91.6858    4.0940 C.ar    1  UNL1        0.0593
      5 C          59.9125   92.8407    3.3707 C.ar    1  UNL1        0.0446
      6 C          60.7070   93.6130    2.3597 C.ar    1  UNL1        0.1414
      7 F          60.0800   94.7679    1.6363 F       1  UNL1       -0.2041
      8 C          64.5122   95.5477   -0.9610 C.ar    1  UNL1        0.1178
      9 C          64.9262   95.5525    0.4807 C.ar    1  UNL1        0.0221
     10 C          64.1317   94.7801    1.4916 C.ar    1  UNL1        0.0033
     11 C          62.9232   94.0029    1.0609 C.ar    1  UNL1        0.0213
     12 C          62.5092   93.9982   -0.3808 C.ar    1  UNL1        0.0990
     13 N          63.3037   94.7705   -1.3918 N.ar    1  UNL1       -0.2409
     14 C          65.3068   96.3201   -1.9721 C.2     1  UNL1        0.2133
     15 O          66.6606   96.8559   -1.6115 O.2     1  UNL1       -0.2877
     16 C          64.7475   96.5566   -3.3437 C.3     1  UNL1        0.1784
     17 C          65.0232   92.0914   -6.1485 C.3     1  UNL1        0.0538
     18 C          65.1553   93.5276   -5.7362 C.ar    1  UNL1        0.0783
     19 C          64.6989   94.1168   -4.4344 C.ar    1  UNL1        0.0923
     20 N          65.0286   95.5800   -4.4470 N.ar    1  UNL1       -0.3006
     21 C          65.6887   95.8953   -5.7565 C.ar    1  UNL1        0.1786
     22 N          65.7671   94.6268   -6.5533 N.ar    1  UNL1       -0.2283
     23 N          59.7450   90.9135    5.1050 N.am    1  UNL1       -0.2212
     24 C          60.2565   89.7894    5.9565 C.3     1  UNL1        0.1471
     25 C          59.1271   89.3108    6.8198 C.3     1  UNL1        0.2149
     26 O          57.9175   90.1391    6.5018 O.3     1  UNL1       -0.4342
     27 C          58.2994   91.1295    5.4421 C.2     1  UNL1        0.4088
     28 O          57.3946   92.1559    4.8273 O.2     1  UNL1       -0.2258
     29 C          59.1952   88.1992    7.8245 C.3     1  UNL1        0.1745
     30 N          59.8932   88.4142    9.1348 N.ar    1  UNL1       -0.2264
     31 C          60.1205   89.7361    9.8061 C.ar    1  UNL1        0.1193
     32 C          60.8542   89.4839   11.0899 C.ar    1  UNL1        0.1441
     33 N          61.0802   88.0060   11.2120 N.ar    1  UNL1       -0.1271
     34 N          60.4863   87.3449   10.0036 N.ar    1  UNL1       -0.0636
@<TRIPOS>BOND
     1    17    18    1
     2    18    19   ar
     3    19    20   ar
     4    20    16    1
     5    16    14    1
     6    14    15    2
     7    14     8    1
     8     8     9   ar
     9     9    10   ar
    10    10    11   ar
    11    11     1    1
    12     1     2   ar
    13     2     3   ar
    14     3     4   ar
    15     4    23    1
    16    23    24    1
    17    24    25    1
    18    25    29    1
    19    29    30    1
    20    30    31   ar
    21    31    32   ar
    22    32    33   ar
    23    33    34   ar
    24    25    26    1
    25    26    27    1
    26    27    28    2
    27     4     5   ar
    28     5     6   ar
    29     6     7    1
    30    11    12   ar
    31    12    13   ar
    32    20    21   ar
    33    21    22   ar
    34    22    18   ar
    35    13     8   ar
    36     6     1   ar
    37    27    23   am
    38    34    30   ar
@<TRIPOS>MOLECULE
*****
 34 38 0 0 0
SMALL
GASTEIGER

@<TRIPOS>ATOM
      1 C          72.5627   75.5640   12.7721 C.ar    1  UNL1        0.0291
      2 C          73.5189   75.9171   11.6717 C.ar    1  UNL1        0.0036
      3 C          73.5374   77.3086   11.1119 C.ar    1  UNL1        0.0152
      4 C          72.5997   78.3470   11.6525 C.ar    1  UNL1        0.0593
      5 C          71.6434   77.9939   12.7530 C.ar    1  UNL1        0.0446
      6 C          71.6249   76.6024   13.3127 C.ar    1  UNL1        0.1414
      7 F          70.6686   76.2492   14.4131 F       1  UNL1       -0.2041
      8 C          72.5072   71.3895   14.4515 C.ar    1  UNL1        0.1178
      9 C          73.6130   72.3326   14.8226 C.ar    1  UNL1        0.0221
     10 C          73.6315   73.7240   14.2628 C.ar    1  UNL1        0.0033
     11 C          72.5442   74.1724   13.3319 C.ar    1  UNL1        0.0213
     12 C          71.4384   73.2293   12.9607 C.ar    1  UNL1        0.0990
     13 N          71.4199   71.8379   13.5205 N.ar    1  UNL1       -0.2409
     14 C          72.4887   69.9979   15.0113 C.2     1  UNL1        0.2133
     15 O          72.2976   68.8242   14.0970 O.2     1  UNL1       -0.2877
     16 C          72.6613   69.7801   16.4853 C.3     1  UNL1        0.1784
     17 C          71.3554   73.6147   19.8723 C.3     1  UNL1        0.0538
     18 C          71.2930   72.3824   19.0194 C.ar    1  UNL1        0.0783
     19 C          72.3830   71.8745   18.1227 C.ar    1  UNL1        0.0923
     20 N          71.8931   70.6198   17.4625 N.ar    1  UNL1       -0.3006
     21 C          70.5004   70.3523   17.9510 C.ar    1  UNL1        0.1786
     22 N          70.1294   71.4416   18.9132 N.ar    1  UNL1       -0.2283
     23 N          72.6181   79.7385   11.0928 N.am    1  UNL1       -0.2212
     24 C          72.2284   80.1336    9.6992 C.3     1  UNL1        0.1471
     25 C          72.3990   81.6185    9.5734 C.3     1  UNL1        0.2149
     26 O          72.8941   82.1412   10.8894 O.3     1  UNL1       -0.4342
     27 C          73.0295   80.9793   11.8284 C.2     1  UNL1        0.4088
     28 O          73.4947   81.0465   13.2528 O.2     1  UNL1       -0.2258
     29 C          72.1229   82.4370    8.3471 C.3     1  UNL1        0.1745
     30 N          72.1098   81.7839    6.9968 N.ar    1  UNL1       -0.2264
     31 C          71.1588   80.7164    6.5430 C.ar    1  UNL1        0.1193
     32 C          71.5066   80.3565    5.1289 C.ar    1  UNL1        0.1441
     33 N          72.6725   81.2017    4.7088 N.ar    1  UNL1       -0.1271
     34 N          73.0453   82.0839    5.8632 N.ar    1  UNL1       -0.0636
@<TRIPOS>BOND
     1    17    18    1
     2    18    19   ar
     3    19    20   ar
     4    20    16    1
     5    16    14    1
     6    14    15    2
     7    14     8    1
     8     8     9   ar
     9     9    10   ar
    10    10    11   ar
    11    11     1    1
    12     1     2   ar
    13     2     3   ar
    14     3     4   ar
    15     4    23    1
    16    23    24    1
    17    24    25    1
    18    25    29    1
    19    29    30    1
    20    30    31   ar
    21    31    32   ar
    22    32    33   ar
    23    33    34   ar
    24    25    26    1
    25    26    27    1
    26    27    28    2
    27     4     5   ar
    28     5     6   ar
    29     6     7    1
    30    11    12   ar
    31    12    13   ar
    32    20    21   ar
    33    21    22   ar
    34    22    18   ar
    35    13     8   ar
    36     6     1   ar
    37    27    23   am
    38    34    30   ar
@<TRIPOS>MOLECULE
*****
 34 38 0 0 0
SMALL
GASTEIGER

@<TRIPOS>ATOM
      1 C          64.3984   88.7834   13.7355 C.ar    1  UNL1        0.0291
      2 C          65.3665   89.4032   14.6992 C.ar    1  UNL1        0.0036
      3 C          65.8184   90.8199   14.5015 C.ar    1  UNL1        0.0152
      4 C          65.3022   91.6166   13.3401 C.ar    1  UNL1        0.0593
      5 C          64.3341   90.9967   12.3765 C.ar    1  UNL1        0.0446
      6 C          63.8822   89.5802   12.5742 C.ar    1  UNL1        0.1414
      7 F          62.9141   88.9603   11.6105 F       1  UNL1       -0.2041
      8 C          63.0427   84.5337   14.3287 C.ar    1  UNL1        0.1178
      9 C          63.8261   85.2279   15.4031 C.ar    1  UNL1        0.0221
     10 C          64.2780   86.6444   15.2053 C.ar    1  UNL1        0.0033
     11 C          63.9465   87.3668   13.9332 C.ar    1  UNL1        0.0213
     12 C          63.1630   86.6727   12.8588 C.ar    1  UNL1        0.0990
     13 N          62.7111   85.2561   13.0566 N.ar    1  UNL1       -0.2409
     14 C          62.5907   83.1171   14.5264 C.2     1  UNL1        0.2133
     15 O          61.2836   82.8348   15.2060 O.2     1  UNL1       -0.2877
     16 C          63.4458   81.9829   14.0445 C.3     1  UNL1        0.1784
     17 C          62.6644   79.3482    9.5357 C.3     1  UNL1        0.0538
     18 C          63.0883   80.3985   10.5192 C.ar    1  UNL1        0.0783
     19 C          62.8632   80.3602   12.0018 C.ar    1  UNL1        0.0923
     20 N          63.4475   81.6095   12.5916 N.ar    1  UNL1       -0.3006
     21 C          64.0337   82.4198   11.4737 C.ar    1  UNL1        0.1786
     22 N          63.8117   81.6714   10.1929 N.ar    1  UNL1       -0.2283
     23 N          65.7541   93.0332   13.1424 N.am    1  UNL1       -0.2212
     24 C          65.5176   93.8719   11.9215 C.3     1  UNL1        0.1471
     25 C          66.1392   95.2168   12.1554 C.3     1  UNL1        0.2149
     26 O          66.7599   95.2093   13.5209 O.3     1  UNL1       -0.4342
     27 C          66.5220   93.8598   14.1309 C.2     1  UNL1        0.4088
     28 O          66.9727   93.4149   15.4907 O.2     1  UNL1       -0.2258
     29 C          66.1399   96.3672   11.1928 C.3     1  UNL1        0.1745
     30 N          66.3520   96.1199    9.7286 N.ar    1  UNL1       -0.2264
     31 C          67.3436   95.1669    9.1300 C.ar    1  UNL1        0.1193
     32 C          67.2141   95.2402    7.6374 C.ar    1  UNL1        0.1441
     33 N          66.1424   96.2385    7.3135 N.ar    1  UNL1       -0.1271
     34 N          65.6096   96.7822    8.6060 N.ar    1  UNL1       -0.0636
@<TRIPOS>BOND
     1    17    18    1
     2    18    19   ar
     3    19    20   ar
     4    20    16    1
     5    16    14    1
     6    14    15    2
     7    14     8    1
     8     8     9   ar
     9     9    10   ar
    10    10    11   ar
    11    11     1    1
    12     1     2   ar
    13     2     3   ar
    14     3     4   ar
    15     4    23    1
    16    23    24    1
    17    24    25    1
    18    25    29    1
    19    29    30    1
    20    30    31   ar
    21    31    32   ar
    22    32    33   ar
    23    33    34   ar
    24    25    26    1
    25    26    27    1
    26    27    28    2
    27     4     5   ar
    28     5     6   ar
    29     6     7    1
    30    11    12   ar
    31    12    13   ar
    32    20    21   ar
    33    21    22   ar
    34    22    18   ar
    35    13     8   ar
    36     6     1   ar
    37    27    23   am
    38    34    30   ar
@<TRIPOS>MOLECULE
*****
 34 38 0 0 0
SMALL
GASTEIGER

@<TRIPOS>ATOM
      1 C          64.6073   90.1633   13.3804 C.ar    1  UNL1        0.0291
      2 C          65.0936   89.6170   14.6900 C.ar    1  UNL1        0.0036
      3 C          64.7275   88.2223   15.1032 C.ar    1  UNL1        0.0152
      4 C          63.8750   87.3739   14.2068 C.ar    1  UNL1        0.0593
      5 C          63.3887   87.9202   12.8972 C.ar    1  UNL1        0.0446
      6 C          63.7549   89.3149   12.4840 C.ar    1  UNL1        0.1414
      7 F          63.2686   89.8613   11.1744 F       1  UNL1       -0.2041
      8 C          65.7057   94.3474   12.1407 C.ar    1  UNL1        0.1178
      9 C          65.0105   93.4365   11.1728 C.ar    1  UNL1        0.0221
     10 C          64.6444   92.0418   11.5860 C.ar    1  UNL1        0.0033
     11 C          64.9735   91.5581   12.9672 C.ar    1  UNL1        0.0213
     12 C          65.6687   92.4689   13.9351 C.ar    1  UNL1        0.0990
     13 N          66.0348   93.8636   13.5219 N.ar    1  UNL1       -0.2409
     14 C          66.0719   95.7421   11.7275 C.2     1  UNL1        0.2133
     15 O          66.2132   96.8183   12.7628 O.2     1  UNL1       -0.2877
     16 C          66.2966   96.0606   10.2791 C.3     1  UNL1        0.1784
     17 C          69.1588   91.9313    8.6551 C.3     1  UNL1        0.0538
     18 C          68.3406   93.1884    8.6547 C.ar    1  UNL1        0.0783
     19 C          67.7683   93.8683    9.8632 C.ar    1  UNL1        0.0923
     20 N          67.0249   95.0865    9.4011 N.ar    1  UNL1       -0.3006
     21 C          67.1378   95.1595    7.9072 C.ar    1  UNL1        0.1786
     22 N          67.9508   93.9865    7.4459 N.ar    1  UNL1       -0.2283
     23 N          63.5089   85.9792   14.6200 N.am    1  UNL1       -0.2212
     24 C          63.7279   84.7342   13.8124 C.3     1  UNL1        0.1471
     25 C          63.2138   83.5701   14.6065 C.3     1  UNL1        0.2149
     26 O          62.6771   84.0957   15.9050 O.3     1  UNL1       -0.4342
     27 C          62.8595   85.5846   15.9132 C.2     1  UNL1        0.4088
     28 O          62.4622   86.5153   17.0204 O.2     1  UNL1       -0.2258
     29 C          63.2330   82.1329   14.1777 C.3     1  UNL1        0.1745
     30 N          63.3021   81.7861   12.7199 N.ar    1  UNL1       -0.2264
     31 C          63.9893   82.5877   11.6545 C.ar    1  UNL1        0.1193
     32 C          63.8080   81.8738   10.3479 C.ar    1  UNL1        0.1441
     33 N          63.0088   80.6308   10.6057 N.ar    1  UNL1       -0.1271
     34 N          62.6961   80.5766   12.0717 N.ar    1  UNL1       -0.0636
@<TRIPOS>BOND
     1    17    18    1
     2    18    19   ar
     3    19    20   ar
     4    20    16    1
     5    16    14    1
     6    14    15    2
     7    14     8    1
     8     8     9   ar
     9     9    10   ar
    10    10    11   ar
    11    11     1    1
    12     1     2   ar
    13     2     3   ar
    14     3     4   ar
    15     4    23    1
    16    23    24    1
    17    24    25    1
    18    25    29    1
    19    29    30    1
    20    30    31   ar
    21    31    32   ar
    22    32    33   ar
    23    33    34   ar
    24    25    26    1
    25    26    27    1
    26    27    28    2
    27     4     5   ar
    28     5     6   ar
    29     6     7    1
    30    11    12   ar
    31    12    13   ar
    32    20    21   ar
    33    21    22   ar
    34    22    18   ar
    35    13     8   ar
    36     6     1   ar
    37    27    23   am
    38    34    30   ar
@<TRIPOS>MOLECULE
*****
 34 38 0 0 0
SMALL
GASTEIGER

@<TRIPOS>ATOM
      1 C          61.1543   87.9373    9.5204 C.ar    1  UNL1        0.0291
      2 C          61.2713   89.4327    9.5273 C.ar    1  UNL1        0.0036
      3 C          60.6397   90.2395    8.4317 C.ar    1  UNL1        0.0152
      4 C          59.8911   89.5509    7.3292 C.ar    1  UNL1        0.0593
      5 C          59.7741   88.0554    7.3224 C.ar    1  UNL1        0.0446
      6 C          60.4057   87.2487    8.4179 C.ar    1  UNL1        0.1414
      7 F          60.2887   85.7532    8.4111 F       1  UNL1       -0.2041
      8 C          63.0490   85.5171   12.8071 C.ar    1  UNL1        0.1178
      9 C          63.3290   86.9869   12.7012 C.ar    1  UNL1        0.0221
     10 C          62.6974   87.7936   11.6056 C.ar    1  UNL1        0.0033
     11 C          61.7858   87.1305   10.6160 C.ar    1  UNL1        0.0213
     12 C          61.5058   85.6607   10.7219 C.ar    1  UNL1        0.0990
     13 N          62.1374   84.8540   11.8174 N.ar    1  UNL1       -0.2409
     14 C          63.6805   84.7103   13.9027 C.2     1  UNL1        0.2133
     15 O          63.7916   85.2807   15.2855 O.2     1  UNL1       -0.2877
     16 C          64.2011   83.3332   13.6153 C.3     1  UNL1        0.1784
     17 C          59.9481   80.2712   14.2621 C.3     1  UNL1        0.0538
     18 C          61.2972   80.7668   13.8327 C.ar    1  UNL1        0.0783
     19 C          61.8941   82.1014   14.1684 C.ar    1  UNL1        0.0923
     20 N          63.2521   82.1742   13.5354 N.ar    1  UNL1       -0.3006
     21 C          63.4945   80.8847   12.8086 C.ar    1  UNL1        0.1786
     22 N          62.2863   80.0148   12.9923 N.ar    1  UNL1       -0.2283
     23 N          59.2596   90.3576    6.2337 N.am    1  UNL1       -0.2212
     24 C          59.9676   91.3207    5.3275 C.3     1  UNL1        0.1471
     25 C          58.9547   91.9012    4.3857 C.3     1  UNL1        0.2149
     26 O          57.6206   91.2969    4.7098 O.3     1  UNL1       -0.4342
     27 C          57.8090   90.3429    5.8519 C.2     1  UNL1        0.4088
     28 O          56.7354   89.5189    6.4987 O.2     1  UNL1       -0.2258
     29 C          59.2279   92.9090    3.3088 C.3     1  UNL1        0.1745
     30 N          60.2798   92.6356    2.2750 N.ar    1  UNL1       -0.2264
     31 C          61.7630   92.6664    2.4968 C.ar    1  UNL1        0.1193
     32 C          62.4330   92.3332    1.1968 C.ar    1  UNL1        0.1441
     33 N          61.3639   92.0964    0.1716 N.ar    1  UNL1       -0.1271
     34 N          60.0332   92.2832    0.8380 N.ar    1  UNL1       -0.0636
@<TRIPOS>BOND
     1    17    18    1
     2    18    19   ar
     3    19    20   ar
     4    20    16    1
     5    16    14    1
     6    14    15    2
     7    14     8    1
     8     8     9   ar
     9     9    10   ar
    10    10    11   ar
    11    11     1    1
    12     1     2   ar
    13     2     3   ar
    14     3     4   ar
    15     4    23    1
    16    23    24    1
    17    24    25    1
    18    25    29    1
    19    29    30    1
    20    30    31   ar
    21    31    32   ar
    22    32    33   ar
    23    33    34   ar
    24    25    26    1
    25    26    27    1
    26    27    28    2
    27     4     5   ar
    28     5     6   ar
    29     6     7    1
    30    11    12   ar
    31    12    13   ar
    32    20    21   ar
    33    21    22   ar
    34    22    18   ar
    35    13     8   ar
    36     6     1   ar
    37    27    23   am
    38    34    30   ar
@<TRIPOS>MOLECULE
*****
 34 38 0 0 0
SMALL
GASTEIGER

@<TRIPOS>ATOM
      1 C          72.6284   76.5079   13.9360 C.ar    1  UNL1        0.0291
      2 C          73.1824   76.1074   12.6009 C.ar    1  UNL1        0.0036
      3 C          73.3660   77.1370   11.5255 C.ar    1  UNL1        0.0152
      4 C          72.9955   78.5671   11.7855 C.ar    1  UNL1        0.0593
      5 C          72.4415   78.9676   13.1207 C.ar    1  UNL1        0.0446
      6 C          72.2580   77.9380   14.1959 C.ar    1  UNL1        0.1414
      7 F          71.7040   78.3385   15.5312 F       1  UNL1       -0.2041
      8 C          72.0777   73.4191   17.1619 C.ar    1  UNL1        0.1178
      9 C          70.9305   73.7802   16.2656 C.ar    1  UNL1        0.0221
     10 C          71.1141   74.8098   15.1903 C.ar    1  UNL1        0.0033
     11 C          72.4449   75.4783   15.0114 C.ar    1  UNL1        0.0213
     12 C          73.5922   75.1172   15.9076 C.ar    1  UNL1        0.0990
     13 N          73.4086   74.0876   16.9829 N.ar    1  UNL1       -0.2409
     14 C          71.8942   72.3895   18.2372 C.2     1  UNL1        0.2133
     15 O          71.9001   72.8020   19.6794 O.2     1  UNL1       -0.2877
     16 C          71.7047   70.9475   17.8703 C.3     1  UNL1        0.1784
     17 C          70.4396   69.6553   12.9094 C.3     1  UNL1        0.0538
     18 C          71.2283   69.9242   14.1566 C.ar    1  UNL1        0.0783
     19 C          70.6689   70.3738   15.4739 C.ar    1  UNL1        0.0923
     20 N          71.8099   70.5182   16.4369 N.ar    1  UNL1       -0.3006
     21 C          73.0744   70.1579   15.7149 C.ar    1  UNL1        0.1786
     22 N          72.7150   69.7909   14.3056 N.ar    1  UNL1       -0.2283
     23 N          73.1790   79.5968   10.7102 N.am    1  UNL1       -0.2212
     24 C          73.1018   79.3517    9.2324 C.3     1  UNL1        0.1471
     25 C          73.3471   80.6557    8.5328 C.3     1  UNL1        0.2149
     26 O          73.5758   81.7067    9.5784 O.3     1  UNL1       -0.4342
     27 C          73.4720   81.0522   10.9240 C.2     1  UNL1        0.4088
     28 O          73.6328   81.7336   12.2506 O.2     1  UNL1       -0.2258
     29 C          73.3611   80.8709    7.0484 C.3     1  UNL1        0.1745
     30 N          72.1834   80.4527    6.2188 N.ar    1  UNL1       -0.2264
     31 C          71.2734   81.3682    5.4549 C.ar    1  UNL1        0.1193
     32 C          70.2366   80.5268    4.7714 C.ar    1  UNL1        0.1441
     33 N          70.5060   79.0912    5.1128 N.ar    1  UNL1       -0.1271
     34 N          71.7091   79.0454    6.0073 N.ar    1  UNL1       -0.0636
@<TRIPOS>BOND
     1    17    18    1
     2    18    19   ar
     3    19    20   ar
     4    20    16    1
     5    16    14    1
     6    14    15    2
     7    14     8    1
     8     8     9   ar
     9     9    10   ar
    10    10    11   ar
    11    11     1    1
    12     1     2   ar
    13     2     3   ar
    14     3     4   ar
    15     4    23    1
    16    23    24    1
    17    24    25    1
    18    25    29    1
    19    29    30    1
    20    30    31   ar
    21    31    32   ar
    22    32    33   ar
    23    33    34   ar
    24    25    26    1
    25    26    27    1
    26    27    28    2
    27     4     5   ar
    28     5     6   ar
    29     6     7    1
    30    11    12   ar
    31    12    13   ar
    32    20    21   ar
    33    21    22   ar
    34    22    18   ar
    35    13     8   ar
    36     6     1   ar
    37    27    23   am
    38    34    30   ar
@<TRIPOS>MOLECULE
*****
 34 38 0 0 0
SMALL
GASTEIGER

@<TRIPOS>ATOM
      1 C          61.9831   92.9195    1.9802 C.ar    1  UNL1        0.0291
      2 C          62.6685   91.8853    2.8232 C.ar    1  UNL1        0.0036
      3 C          61.9075   91.1717    3.9011 C.ar    1  UNL1        0.0152
      4 C          60.4611   91.4923    4.1358 C.ar    1  UNL1        0.0593
      5 C          59.7757   92.5266    3.2928 C.ar    1  UNL1        0.0446
      6 C          60.5368   93.2401    2.2150 C.ar    1  UNL1        0.1414
      7 F          59.8514   94.2744    1.3720 F       1  UNL1       -0.2041
      8 C          64.2662   95.0601   -1.2532 C.ar    1  UNL1        0.1178
      9 C          63.5696   93.7670   -1.5574 C.ar    1  UNL1        0.0221
     10 C          62.8086   93.0535   -0.4796 C.ar    1  UNL1        0.0033
     11 C          62.7442   93.6331    0.9024 C.ar    1  UNL1        0.0213
     12 C          63.4408   94.9262    1.2066 C.ar    1  UNL1        0.0990
     13 N          64.2017   95.6397    0.1288 N.ar    1  UNL1       -0.2409
     14 C          65.0272   95.7737   -2.3311 C.2     1  UNL1        0.2133
     15 O          66.0031   96.8542   -1.9704 O.2     1  UNL1       -0.2877
     16 C          64.8123   95.4068   -3.7695 C.3     1  UNL1        0.1784
     17 C          59.7978   96.8555   -4.5680 C.3     1  UNL1        0.0538
     18 C          61.2072   96.4018   -4.8083 C.ar    1  UNL1        0.0783
     19 C          62.2558   96.1874   -3.7573 C.ar    1  UNL1        0.0923
     20 N          63.5121   95.7359   -4.4414 N.ar    1  UNL1       -0.3006
     21 C          63.2400   95.6714   -5.9150 C.ar    1  UNL1        0.1786
     22 N          61.8156   96.0829   -6.1419 N.ar    1  UNL1       -0.2283
     23 N          59.7000   90.7788    5.2136 N.am    1  UNL1       -0.2212
     24 C          60.2834   89.8536    6.2402 C.3     1  UNL1        0.1471
     25 C          59.1659   89.3682    7.1151 C.3     1  UNL1        0.2149
     26 O          57.8918   89.9933    6.6292 O.3     1  UNL1       -0.4342
     27 C          58.2220   90.8651    5.4541 C.2     1  UNL1        0.4088
     28 O          57.2454   91.6801    4.6590 O.2     1  UNL1       -0.2258
     29 C          59.2991   88.4235    8.2726 C.3     1  UNL1        0.1745
     30 N          60.3650   87.3681    8.2606 N.ar    1  UNL1       -0.2264
     31 C          61.5348   87.2859    9.1958 C.ar    1  UNL1        0.1193
     32 C          62.3410   86.0767    8.8245 C.ar    1  UNL1        0.1441
     33 N          61.6694   85.4116    7.6597 N.ar    1  UNL1       -0.1271
     34 N          60.4482   86.2098    7.3111 N.ar    1  UNL1       -0.0636
@<TRIPOS>BOND
     1    17    18    1
     2    18    19   ar
     3    19    20   ar
     4    20    16    1
     5    16    14    1
     6    14    15    2
     7    14     8    1
     8     8     9   ar
     9     9    10   ar
    10    10    11   ar
    11    11     1    1
    12     1     2   ar
    13     2     3   ar
    14     3     4   ar
    15     4    23    1
    16    23    24    1
    17    24    25    1
    18    25    29    1
    19    29    30    1
    20    30    31   ar
    21    31    32   ar
    22    32    33   ar
    23    33    34   ar
    24    25    26    1
    25    26    27    1
    26    27    28    2
    27     4     5   ar
    28     5     6   ar
    29     6     7    1
    30    11    12   ar
    31    12    13   ar
    32    20    21   ar
    33    21    22   ar
    34    22    18   ar
    35    13     8   ar
    36     6     1   ar
    37    27    23   am
    38    34    30   ar
