@<TRIPOS>MOLECULE
*****
 31 35 0 0 0
SMALL
GASTEIGER

@<TRIPOS>ATOM
      1 O          63.3288   87.2093   12.9469 O.2     1  UNL1       -0.2699
      2 C          62.7636   86.3976   11.8192 C.2     1  UNL1        0.2506
      3 N          61.7541   87.0047   10.8906 N.am    1  UNL1       -0.2723
      4 C          61.1889   86.1931    9.7629 C.3     1  UNL1        0.1257
      5 C          60.1794   86.8002    8.8343 C.3     1  UNL1        0.1637
      6 O          59.7351   88.2190    9.0334 O.3     1  UNL1       -0.3502
      7 C          60.3003   89.0306   10.1611 C.3     1  UNL1        0.1622
      8 C          61.3098   88.4236   11.0897 C.3     1  UNL1        0.1096
      9 C          63.2079   84.9788   11.6201 C.ar    1  UNL1        0.0729
     10 C          63.3987   84.4402   10.2332 C.ar    1  UNL1        0.0061
     11 C          63.8430   83.0215   10.0341 C.ar    1  UNL1        0.0002
     12 C          64.0965   82.1413   11.2219 C.ar    1  UNL1        0.0016
     13 C          63.9058   82.6799   12.6088 C.ar    1  UNL1        0.0211
     14 C          63.4615   84.0986   12.8079 C.ar    1  UNL1        0.1072
     15 N          63.2707   84.6371   14.1948 N.ar    1  UNL1       -0.1477
     16 N          61.9917   84.6218   14.9784 N.ar    1  UNL1       -0.1447
     17 C          62.2560   85.2608   16.3096 C.ar    1  UNL1        0.1446
     18 C          63.6983   85.6710   16.3487 C.ar    1  UNL1        0.1446
     19 N          64.3254   85.2856   15.0417 N.ar    1  UNL1       -0.1447
     20 C          61.8750   89.2352   12.2174 C.3     1  UNL1        0.0487
     21 C          62.9456   90.2505   11.9476 C.ar    1  UNL1       -0.0204
     22 C          63.0556   90.8823   10.5916 C.ar    1  UNL1       -0.0042
     23 C          64.1262   91.8976   10.3218 C.ar    1  UNL1       -0.0003
     24 C          65.0869   92.2813   11.4080 C.ar    1  UNL1        0.0020
     25 C          64.9769   91.6495   12.7641 C.ar    1  UNL1        0.0235
     26 C          63.9063   90.6342   13.0339 C.ar    1  UNL1       -0.0022
     27 C          65.9376   92.0331   13.8503 C.ar    1  UNL1        0.1107
     28 N          65.5704   92.5295   15.2173 N.ar    1  UNL1       -0.2368
     29 C          66.8400   92.7909   15.9722 C.ar    1  UNL1        0.1064
     30 C          67.9920   92.4560   15.0717 C.ar    1  UNL1        0.0575
     31 S          67.4343   91.9877   13.7603 S.2     1  UNL1       -0.0659
@<TRIPOS>BOND
     1     1     2    2
     2     2     9    1
     3     9    10   ar
     4    10    11   ar
     5    11    12   ar
     6    12    13   ar
     7    13    14   ar
     8    14    15    1
     9    15    16   ar
    10    16    17   ar
    11    17    18   ar
    12    18    19   ar
    13     2     3   am
    14     3     4    1
    15     4     5    1
    16     5     6    1
    17     6     7    1
    18     7     8    1
    19     8    20    1
    20    20    21    1
    21    21    22   ar
    22    22    23   ar
    23    23    24   ar
    24    24    25   ar
    25    25    27    1
    26    27    28   ar
    27    28    29   ar
    28    29    30   ar
    29    30    31   ar
    30    25    26   ar
    31    14     9   ar
    32    19    15   ar
    33     8     3    1
    34    26    21   ar
    35    31    27   ar
@<TRIPOS>MOLECULE
*****
 31 35 0 0 0
SMALL
GASTEIGER

@<TRIPOS>ATOM
      1 O          63.6423   87.4573   13.6983 O.2     1  UNL1       -0.2699
      2 C          63.0507   87.0522   12.3807 C.2     1  UNL1        0.2506
      3 N          62.4007   88.0801   11.5027 N.am    1  UNL1       -0.2723
      4 C          61.8091   87.6751   10.1852 C.3     1  UNL1        0.1257
      5 C          61.1592   88.7031    9.3071 C.3     1  UNL1        0.1637
      6 O          61.1008   90.1360    9.7467 O.3     1  UNL1       -0.3502
      7 C          61.6924   90.5410   11.0642 C.3     1  UNL1        0.1622
      8 C          62.3424   89.5131   11.9422 C.3     1  UNL1        0.1096
      9 C          63.1091   85.6192   11.9412 C.ar    1  UNL1        0.0729
     10 C          63.1420   85.2838   10.4795 C.ar    1  UNL1        0.0061
     11 C          63.2003   83.8509   10.0400 C.ar    1  UNL1        0.0002
     12 C          63.2258   82.7533   11.0621 C.ar    1  UNL1        0.0016
     13 C          63.1929   83.0887   12.5237 C.ar    1  UNL1        0.0211
     14 C          63.1345   84.5217   12.9633 C.ar    1  UNL1        0.1072
     15 N          63.1017   84.8571   14.4249 N.ar    1  UNL1       -0.1477
     16 N          64.2833   85.2277   15.2713 N.ar    1  UNL1       -0.1447
     17 C          63.7933   85.4804   16.6663 C.ar    1  UNL1        0.1446
     18 C          62.3088   85.2660   16.6821 C.ar    1  UNL1        0.1446
     19 N          61.8814   84.8807   15.2969 N.ar    1  UNL1       -0.1447
     20 C          62.9340   89.9182   13.2598 C.3     1  UNL1        0.0487
     21 C          64.2240   90.6824   13.2995 C.ar    1  UNL1       -0.0204
     22 C          65.1682   90.5008   14.4507 C.ar    1  UNL1       -0.0042
     23 C          66.4583   91.2651   14.4904 C.ar    1  UNL1       -0.0003
     24 C          66.8042   92.2109   13.3788 C.ar    1  UNL1        0.0020
     25 C          65.8600   92.3925   12.2275 C.ar    1  UNL1        0.0235
     26 C          64.5699   91.6283   12.1878 C.ar    1  UNL1       -0.0022
     27 C          66.2058   93.3384   11.1159 C.ar    1  UNL1        0.1107
     28 N          65.6641   94.7258   10.9381 N.ar    1  UNL1       -0.2368
     29 C          66.2776   95.3079    9.6992 C.ar    1  UNL1        0.1064
     30 C          67.1986   94.2801    9.1113 C.ar    1  UNL1        0.0575
     31 S          67.1542   93.0629    9.9868 S.2     1  UNL1       -0.0659
@<TRIPOS>BOND
     1     1     2    2
     2     2     9    1
     3     9    10   ar
     4    10    11   ar
     5    11    12   ar
     6    12    13   ar
     7    13    14   ar
     8    14    15    1
     9    15    16   ar
    10    16    17   ar
    11    17    18   ar
    12    18    19   ar
    13     2     3   am
    14     3     4    1
    15     4     5    1
    16     5     6    1
    17     6     7    1
    18     7     8    1
    19     8    20    1
    20    20    21    1
    21    21    22   ar
    22    22    23   ar
    23    23    24   ar
    24    24    25   ar
    25    25    27    1
    26    27    28   ar
    27    28    29   ar
    28    29    30   ar
    29    30    31   ar
    30    25    26   ar
    31    14     9   ar
    32    19    15   ar
    33     8     3    1
    34    26    21   ar
    35    31    27   ar
@<TRIPOS>MOLECULE
*****
 31 35 0 0 0
SMALL
GASTEIGER

@<TRIPOS>ATOM
      1 O          63.7170   88.5246   12.2854 O.2     1  UNL1       -0.2699
      2 C          63.5590   87.5108   13.3796 C.2     1  UNL1        0.2506
      3 N          63.4278   87.9599   14.8047 N.am    1  UNL1       -0.2723
      4 C          63.2698   86.9461   15.8990 C.3     1  UNL1        0.1257
      5 C          63.1385   87.3952   17.3242 C.3     1  UNL1        0.1637
      6 O          63.1652   88.8580   17.6551 O.3     1  UNL1       -0.3502
      7 C          63.3232   89.8717   16.5609 C.3     1  UNL1        0.1622
      8 C          63.4545   89.4227   15.1357 C.3     1  UNL1        0.1096
      9 C          63.5323   86.0480   13.0486 C.ar    1  UNL1        0.0729
     10 C          64.3560   85.0829   13.8486 C.ar    1  UNL1        0.0061
     11 C          64.3294   83.6201   13.5177 C.ar    1  UNL1        0.0002
     12 C          63.4790   83.1225   12.3867 C.ar    1  UNL1        0.0016
     13 C          62.6553   84.0876   11.5867 C.ar    1  UNL1        0.0211
     14 C          62.6819   85.5504   11.9176 C.ar    1  UNL1        0.1072
     15 N          61.8582   86.5155   11.1176 N.ar    1  UNL1       -0.1477
     16 N          62.0952   86.9031    9.6881 N.ar    1  UNL1       -0.1447
     17 C          61.0363   87.8896    9.2936 C.ar    1  UNL1        0.1446
     18 C          60.1449   88.1117   10.4793 C.ar    1  UNL1        0.1446
     19 N          60.6529   87.2625   11.6066 N.ar    1  UNL1       -0.1447
     20 C          63.6125   90.4364   14.0415 C.3     1  UNL1        0.0487
     21 C          64.9298   91.1254   13.8419 C.ar    1  UNL1       -0.0204
     22 C          66.0192   90.9706   14.8613 C.ar    1  UNL1       -0.0042
     23 C          67.3366   91.6596   14.6617 C.ar    1  UNL1       -0.0003
     24 C          67.5645   92.5034   13.4427 C.ar    1  UNL1        0.0020
     25 C          66.4751   92.6583   12.4233 C.ar    1  UNL1        0.0235
     26 C          65.1577   91.9693   12.6229 C.ar    1  UNL1       -0.0022
     27 C          66.7030   93.5022   11.2043 C.ar    1  UNL1        0.1107
     28 N          67.6449   93.1901   10.0794 N.ar    1  UNL1       -0.2368
     29 C          67.5531   94.3013    9.0761 C.ar    1  UNL1        0.1064
     30 C          66.5544   95.3002    9.5808 C.ar    1  UNL1        0.0575
     31 S          66.0290   94.8064   10.8962 S.2     1  UNL1       -0.0659
@<TRIPOS>BOND
     1     1     2    2
     2     2     9    1
     3     9    10   ar
     4    10    11   ar
     5    11    12   ar
     6    12    13   ar
     7    13    14   ar
     8    14    15    1
     9    15    16   ar
    10    16    17   ar
    11    17    18   ar
    12    18    19   ar
    13     2     3   am
    14     3     4    1
    15     4     5    1
    16     5     6    1
    17     6     7    1
    18     7     8    1
    19     8    20    1
    20    20    21    1
    21    21    22   ar
    22    22    23   ar
    23    23    24   ar
    24    24    25   ar
    25    25    27    1
    26    27    28   ar
    27    28    29   ar
    28    29    30   ar
    29    30    31   ar
    30    25    26   ar
    31    14     9   ar
    32    19    15   ar
    33     8     3    1
    34    26    21   ar
    35    31    27   ar
@<TRIPOS>MOLECULE
*****
 31 35 0 0 0
SMALL
GASTEIGER

@<TRIPOS>ATOM
      1 O          62.6428   90.0175   11.5651 O.2     1  UNL1       -0.2699
      2 C          62.6820   88.5180   11.5720 C.2     1  UNL1        0.2506
      3 N          63.3328   87.7900   12.7107 N.am    1  UNL1       -0.2723
      4 C          63.3720   86.2906   12.7176 C.3     1  UNL1        0.1257
      5 C          64.0228   85.5626   13.8563 C.3     1  UNL1        0.1637
      6 O          64.6343   86.3341   14.9880 O.3     1  UNL1       -0.3502
      7 C          64.5950   87.8336   14.9811 C.3     1  UNL1        0.1622
      8 C          63.9443   88.5615   13.8425 C.3     1  UNL1        0.1096
      9 C          62.0705   87.7465   10.4402 C.ar    1  UNL1        0.0729
     10 C          62.9004   86.7650    9.6669 C.ar    1  UNL1        0.0061
     11 C          62.2889   85.9935    8.5352 C.ar    1  UNL1        0.0002
     12 C          60.8476   86.2036    8.1767 C.ar    1  UNL1        0.0016
     13 C          60.0178   87.1851    8.9500 C.ar    1  UNL1        0.0211
     14 C          60.6292   87.9565   10.0818 C.ar    1  UNL1        0.1072
     15 N          59.7994   88.9380   10.8551 N.ar    1  UNL1       -0.1477
     16 N          59.0406   88.6501   12.1166 N.ar    1  UNL1       -0.1447
     17 C          58.3549   89.9139   12.5438 C.ar    1  UNL1        0.1446
     18 C          58.6899   90.9830   11.5464 C.ar    1  UNL1        0.1446
     19 N          59.5826   90.3799   10.5027 N.ar    1  UNL1       -0.1447
     20 C          63.9050   90.0610   13.8356 C.3     1  UNL1        0.0487
     21 C          65.1799   90.8442   13.7290 C.ar    1  UNL1       -0.0204
     22 C          66.1974   90.7739   14.8288 C.ar    1  UNL1       -0.0042
     23 C          67.4723   91.5571   14.7222 C.ar    1  UNL1       -0.0003
     24 C          67.7296   92.4105   13.5158 C.ar    1  UNL1        0.0020
     25 C          66.7120   92.4808   12.4159 C.ar    1  UNL1        0.0235
     26 C          65.4372   91.6976   12.5226 C.ar    1  UNL1       -0.0022
     27 C          66.9693   93.3342   11.2095 C.ar    1  UNL1        0.1107
     28 N          67.9557   93.0430   10.1176 N.ar    1  UNL1       -0.2368
     29 C          67.8814   94.1575    9.1165 C.ar    1  UNL1        0.1064
     30 C          66.8491   95.1376    9.5896 C.ar    1  UNL1        0.0575
     31 S          66.2853   94.6288   10.8832 S.2     1  UNL1       -0.0659
@<TRIPOS>BOND
     1     1     2    2
     2     2     9    1
     3     9    10   ar
     4    10    11   ar
     5    11    12   ar
     6    12    13   ar
     7    13    14   ar
     8    14    15    1
     9    15    16   ar
    10    16    17   ar
    11    17    18   ar
    12    18    19   ar
    13     2     3   am
    14     3     4    1
    15     4     5    1
    16     5     6    1
    17     6     7    1
    18     7     8    1
    19     8    20    1
    20    20    21    1
    21    21    22   ar
    22    22    23   ar
    23    23    24   ar
    24    24    25   ar
    25    25    27    1
    26    27    28   ar
    27    28    29   ar
    28    29    30   ar
    29    30    31   ar
    30    25    26   ar
    31    14     9   ar
    32    19    15   ar
    33     8     3    1
    34    26    21   ar
    35    31    27   ar
@<TRIPOS>MOLECULE
*****
 31 35 0 0 0
SMALL
GASTEIGER

@<TRIPOS>ATOM
      1 O          65.0728   85.5496   13.3026 O.2     1  UNL1       -0.2699
      2 C          64.0138   84.8075   14.0628 C.2     1  UNL1        0.2506
      3 N          63.3672   85.4399   15.2593 N.am    1  UNL1       -0.2723
      4 C          62.3082   84.6978   16.0195 C.3     1  UNL1        0.1257
      5 C          61.6616   85.3304   17.2161 C.3     1  UNL1        0.1637
      6 O          62.0739   86.7049   17.6525 O.3     1  UNL1       -0.3502
      7 C          63.1329   87.4470   16.8924 C.3     1  UNL1        0.1622
      8 C          63.7795   86.8146   15.6958 C.3     1  UNL1        0.1096
      9 C          63.6015   83.4328   13.6263 C.ar    1  UNL1        0.0729
     10 C          63.9388   82.2435   14.4759 C.ar    1  UNL1        0.0061
     11 C          63.5265   80.8689   14.0395 C.ar    1  UNL1        0.0002
     12 C          62.7769   80.6837   12.7535 C.ar    1  UNL1        0.0016
     13 C          62.4396   81.8730   11.9039 C.ar    1  UNL1        0.0211
     14 C          62.8519   83.2476   12.3403 C.ar    1  UNL1        0.1072
     15 N          62.5146   84.4369   11.4908 N.ar    1  UNL1       -0.1477
     16 N          61.6700   85.6052   11.9049 N.ar    1  UNL1       -0.1447
     17 C          61.5961   86.5571   10.7480 C.ar    1  UNL1        0.1446
     18 C          62.3951   85.9770    9.6188 C.ar    1  UNL1        0.1446
     19 N          62.9628   84.6667   10.0778 N.ar    1  UNL1       -0.1447
     20 C          64.8385   87.5567   14.9356 C.3     1  UNL1        0.0487
     21 C          64.4880   88.8117   14.1927 C.ar    1  UNL1       -0.0204
     22 C          65.2011   90.0933   14.5073 C.ar    1  UNL1       -0.0042
     23 C          64.8507   91.3485   13.7644 C.ar    1  UNL1       -0.0003
     24 C          63.7872   91.3220   12.7070 C.ar    1  UNL1        0.0020
     25 C          63.0741   90.0403   12.3924 C.ar    1  UNL1        0.0235
     26 C          63.4246   88.7852   13.1353 C.ar    1  UNL1       -0.0022
     27 C          62.0106   90.0138   11.3349 C.ar    1  UNL1        0.1107
     28 N          62.2385   89.8795    9.8584 N.ar    1  UNL1       -0.2368
     29 C          60.9012   89.8996    9.1792 C.ar    1  UNL1        0.1064
     30 C          59.8468   90.0463   10.2359 C.ar    1  UNL1        0.0575
     31 S          60.5324   90.1169   11.5683 S.2     1  UNL1       -0.0659
@<TRIPOS>BOND
     1     1     2    2
     2     2     9    1
     3     9    10   ar
     4    10    11   ar
     5    11    12   ar
     6    12    13   ar
     7    13    14   ar
     8    14    15    1
     9    15    16   ar
    10    16    17   ar
    11    17    18   ar
    12    18    19   ar
    13     2     3   am
    14     3     4    1
    15     4     5    1
    16     5     6    1
    17     6     7    1
    18     7     8    1
    19     8    20    1
    20    20    21    1
    21    21    22   ar
    22    22    23   ar
    23    23    24   ar
    24    24    25   ar
    25    25    27    1
    26    27    28   ar
    27    28    29   ar
    28    29    30   ar
    29    30    31   ar
    30    25    26   ar
    31    14     9   ar
    32    19    15   ar
    33     8     3    1
    34    26    21   ar
    35    31    27   ar
