@<TRIPOS>MOLECULE
*****
 52 55 0 0 0
SMALL
GASTEIGER

@<TRIPOS>ATOM
      1 C          62.7512   90.0971   10.7668 C.3     1  UNL1        0.0760
      2 C          61.2036   88.0454   10.3853 C.2     1  UNL1        0.2403
      3 O          60.1646   88.6642   11.2728 O.2     1  UNL1       -0.2733
      4 N          62.4969   88.7619   10.1323 N.am    1  UNL1       -0.3043
      5 H          63.1789   88.3558    9.5498 H       1  UNL1        0.1494
      6 C          60.9493   86.7102    9.7509 C.3     1  UNL1        0.1496
      7 N          63.2371   83.5862   10.6207 N.am    1  UNL1       -0.2567
      8 C          64.5260   82.9645   10.1711 C.3     1  UNL1        0.1168
      9 C          62.7377   84.8373    9.9610 C.2     1  UNL1        0.3046
     10 O          63.5271   85.4668    8.8517 O.2     1  UNL1       -0.2526
     11 N          61.4487   85.4590   10.4106 N.am    1  UNL1       -0.2824
     12 H          60.9306   85.0459   11.1387 H       1  UNL1        0.1514
     13 C          62.4476   82.9568   11.7300 C.3     1  UNL1        0.1413
     14 C          62.7265   84.4595   15.2979 C.ar    1  UNL1        0.0875
     15 N          62.1628   84.4801   13.9081 N.ar    1  UNL1       -0.2453
     16 C          62.7397   83.3172   13.1565 C.ar    1  UNL1        0.0858
     17 C          63.6601   82.5779   14.0820 C.ar    1  UNL1        0.0530
     18 S          63.6520   83.2838   15.4054 S.2     1  UNL1       -0.0705
     19 C          63.4719   85.7988   17.3957 C.3     1  UNL1        0.0069
     20 C          62.4189   85.4420   16.3888 C.3     1  UNL1        0.0465
     21 C          61.0583   86.0678   16.4727 C.3     1  UNL1        0.0069
     22 C          60.1956   86.6261    8.4568 C.3     1  UNL1        0.0270
     23 C          60.5253   85.5498    7.4654 C.3     1  UNL1        0.0022
     24 C          59.1122   87.6183    8.1540 C.3     1  UNL1        0.0022
     25 C          63.5193   91.1478   10.0210 C.3     1  UNL1        0.0216
     26 C          64.0301   92.3584   10.7443 C.3     1  UNL1        0.0220
     27 C          65.3778   92.3260   11.4022 C.3     1  UNL1        0.0830
     28 N          66.5145   93.1146   10.8226 N.am    1  UNL1       -0.2456
     29 C          67.4932   92.4517    9.8992 C.3     1  UNL1        0.1182
     30 C          66.6725   94.5661   11.1663 C.2     1  UNL1        0.4052
     31 O          65.6938   95.2290   12.0897 O.2     1  UNL1       -0.2262
     32 O          67.8092   95.3547   10.5867 O.3     1  UNL1       -0.4289
     33 C          67.5445   96.6704    9.9168 C.3     1  UNL1        0.2447
     34 C          66.6038   96.7426    8.7507 C.ar    1  UNL1        0.0714
     35 C          66.9952   96.7816    7.3032 C.ar    1  UNL1        0.1053
     36 N          65.7398   96.8515    6.4852 N.ar    1  UNL1       -0.2350
     37 C          64.5725   96.8556    7.4272 C.ar    1  UNL1        0.1343
     38 S          65.1065   96.7883    8.8273 S.2     1  UNL1       -0.0652
     39 C          65.5887   91.5050   12.6397 C.3     1  UNL1        0.0462
     40 C          66.5506   91.9693   13.6930 C.ar    1  UNL1       -0.0205
     41 C          66.0348   92.5146   14.9916 C.ar    1  UNL1       -0.0042
     42 C          66.9967   92.9789   16.0448 C.ar    1  UNL1       -0.0003
     43 C          68.4742   92.8979   15.7993 C.ar    1  UNL1       -0.0000
     44 C          68.9899   92.3527   14.5006 C.ar    1  UNL1       -0.0003
     45 C          68.0281   91.8883   13.4475 C.ar    1  UNL1       -0.0042
     46 C          62.2375   90.3816   12.1470 C.3     1  UNL1        0.0459
     47 C          62.9052   89.7615   13.3385 C.ar    1  UNL1       -0.0205
     48 C          63.6786   88.4855   13.1851 C.ar    1  UNL1       -0.0042
     49 C          64.3464   87.8653   14.3765 C.ar    1  UNL1       -0.0003
     50 C          64.2407   88.5212   15.7214 C.ar    1  UNL1       -0.0000
     51 C          63.4672   89.7973   15.8748 C.ar    1  UNL1       -0.0003
     52 C          62.7995   90.4174   14.6834 C.ar    1  UNL1       -0.0042
@<TRIPOS>BOND
     1    19    20    1
     2    20    21    1
     3    20    14    1
     4    14    15   ar
     5    15    16   ar
     6    16    13    1
     7    13     7    1
     8     7     8    1
     9     7     9   am
    10     9    10    2
    11     9    11   am
    12     6    11    1
    13     6     2    1
    14     2     3    2
    15     2     4   am
    16     4     1    1
    17     1    25    1
    18    25    26    1
    19    27    26    1
    20    27    39    1
    21    39    40    1
    22    40    41   ar
    23    41    42   ar
    24    42    43   ar
    25    43    44   ar
    26    44    45   ar
    27    27    28    1
    28    28    29    1
    29    28    30   am
    30    30    31    2
    31    30    32    1
    32    32    33    1
    33    33    34    1
    34    34    35   ar
    35    35    36   ar
    36    36    37   ar
    37    37    38   ar
    38     1    46    1
    39    46    47    1
    40    47    48   ar
    41    48    49   ar
    42    49    50   ar
    43    50    51   ar
    44    51    52   ar
    45     6    22    1
    46    22    23    1
    47    22    24    1
    48    16    17   ar
    49    17    18   ar
    50    18    14   ar
    51    45    40   ar
    52    38    34   ar
    53    52    47   ar
    54    11    12    1
    55     4     5    1
@<TRIPOS>MOLECULE
*****
 52 55 0 0 0
SMALL
GASTEIGER

@<TRIPOS>ATOM
      1 C          62.7919   86.2545   12.3495 C.3     1  UNL1        0.0760
      2 C          63.6796   88.0309   14.0247 C.2     1  UNL1        0.2403
      3 O          63.8247   86.9690   15.0740 O.2     1  UNL1       -0.2733
      4 N          63.1632   87.6737   12.6624 N.am    1  UNL1       -0.3043
      5 H          63.0680   88.3708   11.9737 H       1  UNL1        0.1494
      6 C          64.0509   89.4502   14.3376 C.3     1  UNL1        0.1496
      7 N          64.4199   91.6843   11.0784 N.am    1  UNL1       -0.2567
      8 C          63.5751   92.1823    9.9434 C.3     1  UNL1        0.1168
      9 C          63.8130   90.8162   12.1405 C.2     1  UNL1        0.3046
     10 O          62.3612   90.4462   12.0676 O.2     1  UNL1       -0.2526
     11 N          64.6579   90.3183   13.2755 N.am    1  UNL1       -0.2824
     12 H          65.6107   90.5611   13.3233 H       1  UNL1        0.1514
     13 C          65.8717   92.0543   11.1513 C.3     1  UNL1        0.1413
     14 C          67.5483   93.2671   14.4351 C.ar    1  UNL1        0.0875
     15 N          67.2499   92.1872   13.4378 N.ar    1  UNL1       -0.2453
     16 C          66.4013   92.7802   12.3524 C.ar    1  UNL1        0.0858
     17 C          66.1752   94.2267   12.6790 C.ar    1  UNL1        0.0530
     18 S          66.8841   94.5276   13.9662 S.2     1  UNL1       -0.0705
     19 C          68.4081   91.7942   16.3951 C.3     1  UNL1        0.0069
     20 C          68.3672   93.1134   15.6825 C.3     1  UNL1        0.0465
     21 C          69.1452   94.2791   16.2172 C.3     1  UNL1        0.0069
     22 C          63.8152   90.0014   15.7126 C.3     1  UNL1        0.0270
     23 C          64.2854   91.3834   16.0574 C.3     1  UNL1        0.0022
     24 C          63.1093   89.1705   16.7428 C.3     1  UNL1        0.0022
     25 C          61.5934   85.9636   11.4957 C.3     1  UNL1        0.0216
     26 C          60.7174   87.0866   11.0252 C.3     1  UNL1        0.0220
     27 C          60.4026   87.2314    9.5657 C.3     1  UNL1        0.0830
     28 N          60.4421   88.5850    8.9206 N.am    1  UNL1       -0.2456
     29 C          61.3875   89.6317    9.4310 C.3     1  UNL1        0.1182
     30 C          59.5362   88.8918    7.7651 C.2     1  UNL1        0.4052
     31 O          58.5908   87.8451    7.2547 O.2     1  UNL1       -0.2262
     32 O          59.5757   90.2455    7.1200 O.3     1  UNL1       -0.4289
     33 C          58.9898   90.4424    5.7533 C.3     1  UNL1        0.2447
     34 C          59.7009   91.2999    4.7488 C.ar    1  UNL1        0.0714
     35 C          61.1595   91.2305    4.4054 C.ar    1  UNL1        0.1053
     36 N          61.4383   92.2650    3.3557 N.ar    1  UNL1       -0.2350
     37 C          60.1522   92.9739    3.0503 C.ar    1  UNL1        0.1343
     38 S          59.0784   92.3774    3.9113 S.2     1  UNL1       -0.0652
     39 C          60.0483   86.0225    8.7514 C.3     1  UNL1        0.0462
     40 C          61.0486   85.4421    7.7961 C.ar    1  UNL1       -0.0205
     41 C          60.5912   84.8687    6.4878 C.ar    1  UNL1       -0.0042
     42 C          61.5915   84.2884    5.5326 C.ar    1  UNL1       -0.0003
     43 C          63.0493   84.2815    5.8857 C.ar    1  UNL1       -0.0000
     44 C          63.5068   84.8549    7.1941 C.ar    1  UNL1       -0.0003
     45 C          62.5065   85.4352    8.1493 C.ar    1  UNL1       -0.0042
     46 C          63.6192   85.1261   12.8904 C.3     1  UNL1        0.0459
     47 C          63.4470   83.7404   12.3427 C.ar    1  UNL1       -0.0205
     48 C          62.7293   82.6990   13.1491 C.ar    1  UNL1       -0.0042
     49 C          62.5572   81.3132   12.6013 C.ar    1  UNL1       -0.0003
     50 C          63.1028   80.9688   11.2472 C.ar    1  UNL1       -0.0000
     51 C          63.8205   82.0102   10.4407 C.ar    1  UNL1       -0.0003
     52 C          63.9927   83.3960   10.9885 C.ar    1  UNL1       -0.0042
@<TRIPOS>BOND
     1    19    20    1
     2    20    21    1
     3    20    14    1
     4    14    15   ar
     5    15    16   ar
     6    16    13    1
     7    13     7    1
     8     7     8    1
     9     7     9   am
    10     9    10    2
    11     9    11   am
    12     6    11    1
    13     6     2    1
    14     2     3    2
    15     2     4   am
    16     4     1    1
    17     1    25    1
    18    25    26    1
    19    27    26    1
    20    27    39    1
    21    39    40    1
    22    40    41   ar
    23    41    42   ar
    24    42    43   ar
    25    43    44   ar
    26    44    45   ar
    27    27    28    1
    28    28    29    1
    29    28    30   am
    30    30    31    2
    31    30    32    1
    32    32    33    1
    33    33    34    1
    34    34    35   ar
    35    35    36   ar
    36    36    37   ar
    37    37    38   ar
    38     1    46    1
    39    46    47    1
    40    47    48   ar
    41    48    49   ar
    42    49    50   ar
    43    50    51   ar
    44    51    52   ar
    45     6    22    1
    46    22    23    1
    47    22    24    1
    48    16    17   ar
    49    17    18   ar
    50    18    14   ar
    51    45    40   ar
    52    38    34   ar
    53    52    47   ar
    54    11    12    1
    55     4     5    1
@<TRIPOS>MOLECULE
*****
 52 55 0 0 0
SMALL
GASTEIGER

@<TRIPOS>ATOM
      1 C          63.0794   86.1062   12.4945 C.3     1  UNL1        0.0760
      2 C          63.7349   87.8853   14.2709 C.2     1  UNL1        0.2403
      3 O          63.8906   86.8028   15.2976 O.2     1  UNL1       -0.2733
      4 N          63.3293   87.5369   12.8693 N.am    1  UNL1       -0.3043
      5 H          63.2272   88.2474   12.1955 H       1  UNL1        0.1494
      6 C          63.9848   89.3160   14.6457 C.3     1  UNL1        0.1496
      7 N          64.2926   91.6095   11.4215 N.am    1  UNL1       -0.2567
      8 C          63.4778   91.9959   10.2229 C.3     1  UNL1        0.1168
      9 C          63.7313   90.6560   12.4343 C.2     1  UNL1        0.3046
     10 O          62.3551   90.0889   12.2484 O.2     1  UNL1       -0.2526
     11 N          64.5462   90.2696   13.6329 N.am    1  UNL1       -0.2824
     12 H          65.4494   90.6418   13.7549 H       1  UNL1        0.1514
     13 C          65.6688   92.1765   11.6073 C.3     1  UNL1        0.1413
     14 C          66.4010   95.5165    9.7704 C.ar    1  UNL1        0.0875
     15 N          66.0992   94.0474    9.7472 N.ar    1  UNL1       -0.2453
     16 C          65.9681   93.5786   11.1660 C.ar    1  UNL1        0.0858
     17 C          66.1891   94.7580   12.0661 C.ar    1  UNL1        0.0530
     18 S          66.4566   95.9557   11.2036 S.2     1  UNL1       -0.0705
     19 C          67.9976   96.8063    8.1775 C.3     1  UNL1        0.0069
     20 C          66.6106   96.3926    8.5710 C.3     1  UNL1        0.0465
     21 C          65.4330   96.8549    7.7650 C.3     1  UNL1        0.0069
     22 C          63.6734   89.7932   16.0332 C.3     1  UNL1        0.0270
     23 C          63.9630   91.2131   16.4206 C.3     1  UNL1        0.0022
     24 C          63.0723   88.8506   17.0332 C.3     1  UNL1        0.0022
     25 C          61.9857   85.7645   11.5266 C.3     1  UNL1        0.0216
     26 C          61.0006   86.8148   11.1068 C.3     1  UNL1        0.0220
     27 C          60.6075   86.9409    9.6647 C.3     1  UNL1        0.0830
     28 N          60.5610   88.2923    9.0154 N.am    1  UNL1       -0.2456
     29 C          61.5376   89.3548    9.4242 C.3     1  UNL1        0.1182
     30 C          59.5377   88.5812    7.9573 C.2     1  UNL1        0.4052
     31 O          58.5610   87.5187    7.5485 O.2     1  UNL1       -0.2262
     32 O          59.4911   89.9326    7.3081 O.3     1  UNL1       -0.4289
     33 C          58.9638   90.0758    5.9112 C.3     1  UNL1        0.2447
     34 C          59.5902   91.0620    4.9705 C.ar    1  UNL1        0.0714
     35 C          61.0126   91.0455    4.4945 C.ar    1  UNL1        0.1053
     36 N          61.2058   92.2111    3.5704 N.ar    1  UNL1       -0.2350
     37 C          59.9028   92.9480    3.4752 C.ar    1  UNL1        0.1343
     38 S          58.9043   92.2378    4.3405 S.2     1  UNL1       -0.0652
     39 C          60.2611   85.7156    8.8718 C.3     1  UNL1        0.0462
     40 C          61.1759   85.2453    7.7800 C.ar    1  UNL1       -0.0205
     41 C          60.6050   84.7562    6.4820 C.ar    1  UNL1       -0.0042
     42 C          61.5197   84.2859    5.3902 C.ar    1  UNL1       -0.0003
     43 C          63.0053   84.3047    5.5964 C.ar    1  UNL1       -0.0000
     44 C          63.5762   84.7938    6.8944 C.ar    1  UNL1       -0.0003
     45 C          62.6615   85.2641    7.9862 C.ar    1  UNL1       -0.0042
     46 C          63.9233   85.0171   13.0878 C.3     1  UNL1        0.0459
     47 C          63.3784   83.6242   13.2022 C.ar    1  UNL1       -0.0205
     48 C          62.3903   83.2917   14.2806 C.ar    1  UNL1       -0.0042
     49 C          61.8454   81.8988   14.3950 C.ar    1  UNL1       -0.0003
     50 C          62.2886   80.8386   13.4310 C.ar    1  UNL1       -0.0000
     51 C          63.2768   81.1711   12.3526 C.ar    1  UNL1       -0.0003
     52 C          63.8217   82.5639   12.2382 C.ar    1  UNL1       -0.0042
@<TRIPOS>BOND
     1    19    20    1
     2    20    21    1
     3    20    14    1
     4    14    15   ar
     5    15    16   ar
     6    16    13    1
     7    13     7    1
     8     7     8    1
     9     7     9   am
    10     9    10    2
    11     9    11   am
    12     6    11    1
    13     6     2    1
    14     2     3    2
    15     2     4   am
    16     4     1    1
    17     1    25    1
    18    25    26    1
    19    27    26    1
    20    27    39    1
    21    39    40    1
    22    40    41   ar
    23    41    42   ar
    24    42    43   ar
    25    43    44   ar
    26    44    45   ar
    27    27    28    1
    28    28    29    1
    29    28    30   am
    30    30    31    2
    31    30    32    1
    32    32    33    1
    33    33    34    1
    34    34    35   ar
    35    35    36   ar
    36    36    37   ar
    37    37    38   ar
    38     1    46    1
    39    46    47    1
    40    47    48   ar
    41    48    49   ar
    42    49    50   ar
    43    50    51   ar
    44    51    52   ar
    45     6    22    1
    46    22    23    1
    47    22    24    1
    48    16    17   ar
    49    17    18   ar
    50    18    14   ar
    51    45    40   ar
    52    38    34   ar
    53    52    47   ar
    54    11    12    1
    55     4     5    1
@<TRIPOS>MOLECULE
*****
 52 55 0 0 0
SMALL
GASTEIGER

@<TRIPOS>ATOM
      1 C          62.1533   87.3214   11.2799 C.3     1  UNL1        0.0760
      2 C          60.7648   88.2539    9.2918 C.2     1  UNL1        0.2403
      3 O          60.4822   89.5019   10.0745 O.2     1  UNL1       -0.2733
      4 N          61.6003   87.1636    9.8945 N.am    1  UNL1       -0.3043
      5 H          61.7857   86.3445    9.3808 H       1  UNL1        0.1494
      6 C          60.2118   88.0961    7.9064 C.3     1  UNL1        0.1496
      7 N          58.9920   90.9534    5.4369 N.am    1  UNL1       -0.2567
      8 C          57.7111   91.4994    4.8791 C.3     1  UNL1        0.1168
      9 C          58.9615   89.7978    6.3927 C.2     1  UNL1        0.3046
     10 O          57.6500   89.1882    6.7908 O.2     1  UNL1       -0.2526
     11 N          60.2424   89.2518    6.9506 N.am    1  UNL1       -0.2824
     12 H          61.1032   89.6519    6.6893 H       1  UNL1        0.1514
     13 C          60.3035   91.5630    5.0389 C.3     1  UNL1        0.1413
     14 C          59.9891   93.2524    1.5586 C.ar    1  UNL1        0.0875
     15 N          59.3805   92.7819    2.8463 N.ar    1  UNL1       -0.2453
     16 C          60.4679   92.1640    3.6744 C.ar    1  UNL1        0.0858
     17 C          61.7485   92.2526    2.8985 C.ar    1  UNL1        0.0530
     18 S          61.4527   92.9253    1.5908 S.2     1  UNL1       -0.0705
     19 C          59.5975   95.3469    0.0720 C.3     1  UNL1        0.0069
     20 C          59.2618   93.9309    0.4358 C.3     1  UNL1        0.0465
     21 C          58.1988   93.1935   -0.3233 C.3     1  UNL1        0.0069
     22 C          59.6282   86.7828    7.4769 C.3     1  UNL1        0.0270
     23 C          58.2024   86.4524    7.8051 C.3     1  UNL1        0.0022
     24 C          60.4705   85.7999    6.7191 C.3     1  UNL1        0.0022
     25 C          62.7239   88.6389   11.7142 C.3     1  UNL1        0.0216
     26 C          63.8294   88.6800   12.7271 C.3     1  UNL1        0.0220
     27 C          64.0683   89.9267   13.5264 C.3     1  UNL1        0.0830
     28 N          64.3761   91.2180   12.8280 N.am    1  UNL1       -0.2456
     29 C          63.4420   91.7445   11.7791 C.3     1  UNL1        0.1182
     30 C          65.6180   91.9828   13.1786 C.2     1  UNL1        0.4052
     31 O          66.5520   91.4563   14.2275 O.2     1  UNL1       -0.2262
     32 O          65.9258   93.2741   12.4801 O.3     1  UNL1       -0.4289
     33 C          66.6792   93.2642   11.1832 C.3     1  UNL1        0.2447
     34 C          66.8227   94.5289   10.3895 C.ar    1  UNL1        0.0714
     35 C          67.4760   94.6570    9.0453 C.ar    1  UNL1        0.1053
     36 N          67.3952   96.0949    8.6257 N.ar    1  UNL1       -0.2350
     37 C          66.6918   96.8554    9.7106 C.ar    1  UNL1        0.1343
     38 S          66.3380   95.8876   10.8006 S.2     1  UNL1       -0.0652
     39 C          63.9993   89.8820   15.0242 C.3     1  UNL1        0.0462
     40 C          63.7305   88.5828   15.7242 C.ar    1  UNL1       -0.0205
     41 C          62.9631   88.5699   17.0129 C.ar    1  UNL1       -0.0042
     42 C          62.6944   87.2708   17.7128 C.ar    1  UNL1       -0.0003
     43 C          63.1931   85.9845   17.1240 C.ar    1  UNL1       -0.0000
     44 C          63.9605   85.9973   15.8353 C.ar    1  UNL1       -0.0003
     45 C          64.2292   87.2964   15.1354 C.ar    1  UNL1       -0.0042
     46 C          62.1356   86.1616   12.2311 C.3     1  UNL1        0.0459
     47 C          62.7453   84.8517   11.8280 C.ar    1  UNL1       -0.0205
     48 C          62.8529   83.7362   12.8249 C.ar    1  UNL1       -0.0042
     49 C          63.4626   82.4263   12.4218 C.ar    1  UNL1       -0.0003
     50 C          63.9648   82.2320   11.0218 C.ar    1  UNL1       -0.0000
     51 C          63.8572   83.3476   10.0248 C.ar    1  UNL1       -0.0003
     52 C          63.2475   84.6575   10.4279 C.ar    1  UNL1       -0.0042
@<TRIPOS>BOND
     1    19    20    1
     2    20    21    1
     3    20    14    1
     4    14    15   ar
     5    15    16   ar
     6    16    13    1
     7    13     7    1
     8     7     8    1
     9     7     9   am
    10     9    10    2
    11     9    11   am
    12     6    11    1
    13     6     2    1
    14     2     3    2
    15     2     4   am
    16     4     1    1
    17     1    25    1
    18    25    26    1
    19    27    26    1
    20    27    39    1
    21    39    40    1
    22    40    41   ar
    23    41    42   ar
    24    42    43   ar
    25    43    44   ar
    26    44    45   ar
    27    27    28    1
    28    28    29    1
    29    28    30   am
    30    30    31    2
    31    30    32    1
    32    32    33    1
    33    33    34    1
    34    34    35   ar
    35    35    36   ar
    36    36    37   ar
    37    37    38   ar
    38     1    46    1
    39    46    47    1
    40    47    48   ar
    41    48    49   ar
    42    49    50   ar
    43    50    51   ar
    44    51    52   ar
    45     6    22    1
    46    22    23    1
    47    22    24    1
    48    16    17   ar
    49    17    18   ar
    50    18    14   ar
    51    45    40   ar
    52    38    34   ar
    53    52    47   ar
    54    11    12    1
    55     4     5    1
@<TRIPOS>MOLECULE
*****
 52 55 0 0 0
SMALL
GASTEIGER

@<TRIPOS>ATOM
      1 C          63.1103   85.4755   12.3720 C.3     1  UNL1        0.0760
      2 C          63.9762   86.9421   14.3340 C.2     1  UNL1        0.2403
      3 O          64.8299   85.8036   14.8083 O.2     1  UNL1       -0.2733
      4 N          63.1163   86.7781   13.1158 N.am    1  UNL1       -0.3043
      5 H          62.5560   87.5253   12.8045 H       1  UNL1        0.1494
      6 C          63.9822   88.2447   15.0778 C.3     1  UNL1        0.1496
      7 N          65.9926   91.6662   15.1185 N.am    1  UNL1       -0.2567
      8 C          66.0248   92.9534   15.8881 C.3     1  UNL1        0.1168
      9 C          65.0036   90.5990   15.4829 C.2     1  UNL1        0.3046
     10 O          64.0465   90.8190   16.6169 O.2     1  UNL1       -0.2526
     11 N          64.9714   89.3119   14.7134 N.am    1  UNL1       -0.2824
     12 H          65.5995   89.1675   13.9691 H       1  UNL1        0.1514
     13 C          66.9496   91.4462   13.9846 C.3     1  UNL1        0.1413
     14 C          67.3769   93.3342   10.6203 C.ar    1  UNL1        0.0875
     15 N          67.6474   92.1516   11.5025 N.ar    1  UNL1       -0.2453
     16 C          66.9471   92.3785   12.8095 C.ar    1  UNL1        0.0858
     17 C          66.2438   93.7013   12.7350 C.ar    1  UNL1        0.0530
     18 S          66.5095   94.2920   11.3820 S.2     1  UNL1       -0.0705
     19 C          68.6884   92.4447    8.5614 C.3     1  UNL1        0.0069
     20 C          67.8848   93.5254    9.2219 C.3     1  UNL1        0.0465
     21 C          67.5890   94.7974    8.4840 C.3     1  UNL1        0.0069
     22 C          62.9992   88.4801   16.1860 C.3     1  UNL1        0.0270
     23 C          63.1414   87.7420   17.4841 C.3     1  UNL1        0.0022
     24 C          61.8739   89.4536   15.9961 C.3     1  UNL1        0.0022
     25 C          62.2809   85.3241   11.1315 C.3     1  UNL1        0.0216
     26 C          62.3894   86.3351   10.0287 C.3     1  UNL1        0.0220
     27 C          61.2875   87.3295    9.8118 C.3     1  UNL1        0.0830
     28 N          60.4725   87.2831    8.5534 N.am    1  UNL1       -0.2456
     29 C          60.3693   86.0062    7.7732 C.3     1  UNL1        0.1182
     30 C          59.7606   88.5138    8.0751 C.2     1  UNL1        0.4052
     31 O          59.8637   89.7908    8.8552 O.2     1  UNL1       -0.2262
     32 O          58.9455   88.4674    6.8167 O.3     1  UNL1       -0.4289
     33 C          58.1283   89.6571    6.4081 C.3     1  UNL1        0.2447
     34 C          58.7200   90.6993    5.5061 C.ar    1  UNL1        0.0714
     35 C          57.9634   91.7809    4.7934 C.ar    1  UNL1        0.1053
     36 N          58.9479   92.5931    4.0052 N.ar    1  UNL1       -0.2350
     37 C          60.3129   92.0135    4.2308 C.ar    1  UNL1        0.1343
     38 S          60.1720   90.8431    5.1583 S.2     1  UNL1       -0.0652
     39 C          61.0006   88.3702   10.8532 C.3     1  UNL1        0.0462
     40 C          61.9599   89.5039   11.0648 C.ar    1  UNL1       -0.0205
     41 C          62.6610   90.1220    9.8916 C.ar    1  UNL1       -0.0042
     42 C          63.6202   91.2556   10.1033 C.ar    1  UNL1       -0.0003
     43 C          63.8784   91.7710   11.4881 C.ar    1  UNL1       -0.0000
     44 C          63.1773   91.1529   12.6612 C.ar    1  UNL1       -0.0003
     45 C          62.2181   90.0193   12.4496 C.ar    1  UNL1       -0.0042
     46 C          63.9337   84.3243   12.8688 C.3     1  UNL1        0.0459
     47 C          63.3142   82.9657   13.0120 C.ar    1  UNL1       -0.0205
     48 C          62.5000   82.6370   14.2280 C.ar    1  UNL1       -0.0042
     49 C          61.8805   81.2785   14.3712 C.ar    1  UNL1       -0.0003
     50 C          62.0753   80.2485   13.2982 C.ar    1  UNL1       -0.0000
     51 C          62.8896   80.5772   12.0820 C.ar    1  UNL1       -0.0003
     52 C          63.5091   81.9358   11.9389 C.ar    1  UNL1       -0.0042
@<TRIPOS>BOND
     1    19    20    1
     2    20    21    1
     3    20    14    1
     4    14    15   ar
     5    15    16   ar
     6    16    13    1
     7    13     7    1
     8     7     8    1
     9     7     9   am
    10     9    10    2
    11     9    11   am
    12     6    11    1
    13     6     2    1
    14     2     3    2
    15     2     4   am
    16     4     1    1
    17     1    25    1
    18    25    26    1
    19    27    26    1
    20    27    39    1
    21    39    40    1
    22    40    41   ar
    23    41    42   ar
    24    42    43   ar
    25    43    44   ar
    26    44    45   ar
    27    27    28    1
    28    28    29    1
    29    28    30   am
    30    30    31    2
    31    30    32    1
    32    32    33    1
    33    33    34    1
    34    34    35   ar
    35    35    36   ar
    36    36    37   ar
    37    37    38   ar
    38     1    46    1
    39    46    47    1
    40    47    48   ar
    41    48    49   ar
    42    49    50   ar
    43    50    51   ar
    44    51    52   ar
    45     6    22    1
    46    22    23    1
    47    22    24    1
    48    16    17   ar
    49    17    18   ar
    50    18    14   ar
    51    45    40   ar
    52    38    34   ar
    53    52    47   ar
    54    11    12    1
    55     4     5    1
@<TRIPOS>MOLECULE
*****
 52 55 0 0 0
SMALL
GASTEIGER

@<TRIPOS>ATOM
      1 C          61.8195   88.5902   11.1436 C.3     1  UNL1        0.0760
      2 C          63.4303   90.1577   12.4468 C.2     1  UNL1        0.2403
      3 O          63.7140   90.9159   11.1841 O.2     1  UNL1       -0.2733
      4 N          62.4830   88.9947   12.4266 N.am    1  UNL1       -0.3043
      5 H          62.2968   88.4970   13.2554 H       1  UNL1        0.1494
      6 C          64.0939   90.5622   13.7298 C.3     1  UNL1        0.1496
      7 N          67.0473   93.1172   14.4366 N.am    1  UNL1       -0.2567
      8 C          68.4353   93.1167   15.0052 C.3     1  UNL1        0.1168
      9 C          66.2646   91.8395   14.3675 C.2     1  UNL1        0.3046
     10 O          66.8700   90.5612   14.8669 O.2     1  UNL1       -0.2526
     11 N          64.8766   91.8400   13.7989 N.am    1  UNL1       -0.2824
     12 H          64.4792   92.6790   13.4711 H       1  UNL1        0.1514
     13 C          66.4419   94.3955   13.9372 C.3     1  UNL1        0.1413
     14 C          67.0499   94.6640   10.1131 C.ar    1  UNL1        0.0875
     15 N          67.1499   93.9097   11.4058 N.ar    1  UNL1       -0.2453
     16 C          66.5513   94.7606   12.4864 C.ar    1  UNL1        0.0858
     17 C          66.0814   96.0408   11.8615 C.ar    1  UNL1        0.0530
     18 S          66.3896   95.9811   10.3947 S.2     1  UNL1       -0.0705
     19 C          68.3202   92.9166    8.6697 C.3     1  UNL1        0.0069
     20 C          67.5266   94.1852    8.7738 C.3     1  UNL1        0.0465
     21 C          67.2097   94.9750    7.5386 C.3     1  UNL1        0.0069
     22 C          63.9749   89.6890   14.9436 C.3     1  UNL1        0.0270
     23 C          64.4471   88.2662   14.8932 C.3     1  UNL1        0.0022
     24 C          63.3836   90.2387   16.2077 C.3     1  UNL1        0.0022
     25 C          62.3887   87.4689   10.3259 C.3     1  UNL1        0.0216
     26 C          61.9980   86.0513   10.6221 C.3     1  UNL1        0.0220
     27 C          62.9518   84.9326   10.3241 C.3     1  UNL1        0.0830
     28 N          63.2670   83.9145   11.3796 N.am    1  UNL1       -0.2456
     29 C          63.2991   82.4563   11.0294 C.3     1  UNL1        0.1182
     30 C          63.5501   84.3546   12.7854 C.2     1  UNL1        0.4052
     31 O          63.5180   85.8128   13.1356 O.2     1  UNL1       -0.2262
     32 O          63.8653   83.3365   13.8409 O.3     1  UNL1       -0.4289
     33 C          64.1834   83.7789   15.2384 C.3     1  UNL1        0.2447
     34 C          63.2478   84.6990   15.9652 C.ar    1  UNL1        0.0714
     35 C          61.7563   84.7406   15.8121 C.ar    1  UNL1        0.1053
     36 N          61.2262   85.8064   16.7249 N.ar    1  UNL1       -0.2350
     37 C          62.3901   86.4234   17.4421 C.ar    1  UNL1        0.1343
     38 S          63.6396   85.7390   16.9726 S.2     1  UNL1       -0.0652
     39 C          63.5904   84.8320    8.9705 C.3     1  UNL1        0.0462
     40 C          62.7344   84.7201    7.7438 C.ar    1  UNL1       -0.0205
     41 C          63.3450   84.3039    6.4385 C.ar    1  UNL1       -0.0042
     42 C          62.4890   84.1921    5.2119 C.ar    1  UNL1       -0.0003
     43 C          61.0223   84.4964    5.2905 C.ar    1  UNL1       -0.0000
     44 C          60.4117   84.9127    6.5958 C.ar    1  UNL1       -0.0003
     45 C          61.2677   85.0245    7.8224 C.ar    1  UNL1       -0.0042
     46 C          60.5866   89.3070   10.6784 C.3     1  UNL1        0.0459
     47 C          59.9937   88.9869    9.3382 C.ar    1  UNL1       -0.0205
     48 C          59.2133   87.7204    9.1465 C.ar    1  UNL1       -0.0042
     49 C          58.6205   87.4004    7.8063 C.ar    1  UNL1       -0.0003
     50 C          58.8081   88.3468    6.6578 C.ar    1  UNL1       -0.0000
     51 C          59.5885   89.6134    6.8495 C.ar    1  UNL1       -0.0003
     52 C          60.1814   89.9335    8.1897 C.ar    1  UNL1       -0.0042
@<TRIPOS>BOND
     1    19    20    1
     2    20    21    1
     3    20    14    1
     4    14    15   ar
     5    15    16   ar
     6    16    13    1
     7    13     7    1
     8     7     8    1
     9     7     9   am
    10     9    10    2
    11     9    11   am
    12     6    11    1
    13     6     2    1
    14     2     3    2
    15     2     4   am
    16     4     1    1
    17     1    25    1
    18    25    26    1
    19    27    26    1
    20    27    39    1
    21    39    40    1
    22    40    41   ar
    23    41    42   ar
    24    42    43   ar
    25    43    44   ar
    26    44    45   ar
    27    27    28    1
    28    28    29    1
    29    28    30   am
    30    30    31    2
    31    30    32    1
    32    32    33    1
    33    33    34    1
    34    34    35   ar
    35    35    36   ar
    36    36    37   ar
    37    37    38   ar
    38     1    46    1
    39    46    47    1
    40    47    48   ar
    41    48    49   ar
    42    49    50   ar
    43    50    51   ar
    44    51    52   ar
    45     6    22    1
    46    22    23    1
    47    22    24    1
    48    16    17   ar
    49    17    18   ar
    50    18    14   ar
    51    45    40   ar
    52    38    34   ar
    53    52    47   ar
    54    11    12    1
    55     4     5    1
@<TRIPOS>MOLECULE
*****
 52 55 0 0 0
SMALL
GASTEIGER

@<TRIPOS>ATOM
      1 C          61.7136   89.0699   10.9544 C.3     1  UNL1        0.0760
      2 C          62.0709   86.5099   11.2163 C.2     1  UNL1        0.2403
      3 O          60.7613   86.4010   11.9395 O.2     1  UNL1       -0.2733
      4 N          62.5470   87.8443   10.7237 N.am    1  UNL1       -0.3043
      5 H          63.4066   87.9157   10.2490 H       1  UNL1        0.1494
      6 C          62.9044   85.2843   10.9856 C.3     1  UNL1        0.1496
      7 N          63.3111   82.3548   13.6320 N.am    1  UNL1       -0.2567
      8 C          62.7105   81.0158   13.9425 C.3     1  UNL1        0.1168
      9 C          62.8075   83.1501   12.4641 C.2     1  UNL1        0.3046
     10 O          61.7032   82.6063   11.6067 O.2     1  UNL1       -0.2526
     11 N          63.4080   84.4890   12.1536 N.am    1  UNL1       -0.2824
     12 H          64.1327   84.8459   12.7163 H       1  UNL1        0.1514
     13 C          64.4152   82.8986   14.4893 C.3     1  UNL1        0.1413
     14 C          63.7541   86.3295   16.1798 C.ar    1  UNL1        0.0875
     15 N          63.4683   84.8643   16.0336 N.ar    1  UNL1       -0.2453
     16 C          64.3665   84.3215   14.9619 C.ar    1  UNL1        0.0858
     17 C          65.2073   85.4513   14.4456 C.ar    1  UNL1        0.0530
     18 S          64.8289   86.6923   15.1983 S.2     1  UNL1       -0.0705
     19 C          62.9768   88.7271   16.8104 C.3     1  UNL1        0.0069
     20 C          63.0829   87.2674   17.1390 C.3     1  UNL1        0.0465
     21 C          62.5178   86.7455   18.4267 C.3     1  UNL1        0.0069
     22 C          63.2342   84.8539    9.5871 C.3     1  UNL1        0.0270
     23 C          64.0247   83.6004    9.3549 C.3     1  UNL1        0.0022
     24 C          62.7735   85.6769    8.4208 C.3     1  UNL1        0.0022
     25 C          62.3227   90.2815   11.5954 C.3     1  UNL1        0.0216
     26 C          63.5950   90.8590   11.0497 C.3     1  UNL1        0.0220
     27 C          64.4468   91.7440   11.9107 C.3     1  UNL1        0.0830
     28 N          64.7758   91.3323   13.3150 N.am    1  UNL1       -0.2456
     29 C          64.4635   89.9413   13.7815 C.3     1  UNL1        0.1182
     30 C          65.4171   92.3116   14.2530 C.2     1  UNL1        0.4052
     31 O          65.7294   93.7026   13.7866 O.2     1  UNL1       -0.2262
     32 O          65.7461   91.8999   15.6574 O.3     1  UNL1       -0.4289
     33 C          66.7490   92.6819   16.4527 C.3     1  UNL1        0.2447
     34 C          68.0985   92.9818   15.8706 C.ar    1  UNL1        0.0714
     35 C          68.7916   92.1933   14.7992 C.ar    1  UNL1        0.1053
     36 N          70.1133   92.8471   14.5241 N.ar    1  UNL1       -0.2350
     37 C          70.2370   94.0397   15.4254 C.ar    1  UNL1        0.1343
     38 S          68.9918   94.1229   16.2576 S.2     1  UNL1       -0.0652
     39 C          64.9697   93.0406   11.3672 C.3     1  UNL1        0.0462
     40 C          66.2506   93.0647   10.5869 C.ar    1  UNL1       -0.0205
     41 C          66.5663   94.2321    9.6996 C.ar    1  UNL1       -0.0042
     42 C          67.8471   94.2562    8.9193 C.ar    1  UNL1       -0.0003
     43 C          68.8122   93.1129    9.0263 C.ar    1  UNL1       -0.0000
     44 C          68.4964   91.9454    9.9136 C.ar    1  UNL1       -0.0003
     45 C          67.2156   91.9214   10.6939 C.ar    1  UNL1       -0.0042
     46 C          60.2708   89.0839   10.5440 C.3     1  UNL1        0.0459
     47 C          59.8756   88.6127    9.1758 C.ar    1  UNL1       -0.0205
     48 C          59.4900   87.1796    8.9585 C.ar    1  UNL1       -0.0042
     49 C          59.0948   86.7084    7.5904 C.ar    1  UNL1       -0.0003
     50 C          59.0853   87.6704    6.4395 C.ar    1  UNL1       -0.0000
     51 C          59.4710   89.1036    6.6568 C.ar    1  UNL1       -0.0003
     52 C          59.8662   89.5748    8.0250 C.ar    1  UNL1       -0.0042
@<TRIPOS>BOND
     1    19    20    1
     2    20    21    1
     3    20    14    1
     4    14    15   ar
     5    15    16   ar
     6    16    13    1
     7    13     7    1
     8     7     8    1
     9     7     9   am
    10     9    10    2
    11     9    11   am
    12     6    11    1
    13     6     2    1
    14     2     3    2
    15     2     4   am
    16     4     1    1
    17     1    25    1
    18    25    26    1
    19    27    26    1
    20    27    39    1
    21    39    40    1
    22    40    41   ar
    23    41    42   ar
    24    42    43   ar
    25    43    44   ar
    26    44    45   ar
    27    27    28    1
    28    28    29    1
    29    28    30   am
    30    30    31    2
    31    30    32    1
    32    32    33    1
    33    33    34    1
    34    34    35   ar
    35    35    36   ar
    36    36    37   ar
    37    37    38   ar
    38     1    46    1
    39    46    47    1
    40    47    48   ar
    41    48    49   ar
    42    49    50   ar
    43    50    51   ar
    44    51    52   ar
    45     6    22    1
    46    22    23    1
    47    22    24    1
    48    16    17   ar
    49    17    18   ar
    50    18    14   ar
    51    45    40   ar
    52    38    34   ar
    53    52    47   ar
    54    11    12    1
    55     4     5    1
@<TRIPOS>MOLECULE
*****
 52 55 0 0 0
SMALL
GASTEIGER

@<TRIPOS>ATOM
      1 C          61.7754   90.0080   10.6489 C.3     1  UNL1        0.0760
      2 C          61.5634   87.4903   11.2539 C.2     1  UNL1        0.2403
      3 O          60.2285   87.7543   11.8850 O.2     1  UNL1       -0.2733
      4 N          62.3369   88.6171   10.6358 N.am    1  UNL1       -0.3043
      5 H          63.2130   88.4438   10.2216 H       1  UNL1        0.1494
      6 C          62.1248   86.0994   11.2408 C.3     1  UNL1        0.1496
      7 N          63.1146   84.8191   14.8645 N.am    1  UNL1       -0.2567
      8 C          64.0694   85.1660   15.9681 C.3     1  UNL1        0.1168
      9 C          63.0971   85.6326   13.6045 C.2     1  UNL1        0.3046
     10 O          64.0345   86.7932   13.4480 O.2     1  UNL1       -0.2526
     11 N          62.1423   85.2857   12.5009 N.am    1  UNL1       -0.2824
     12 H          61.5270   84.5240   12.6035 H       1  UNL1        0.1514
     13 C          62.1772   83.6586   15.0209 C.3     1  UNL1        0.1413
     14 C          62.7590   81.0848   12.1744 C.ar    1  UNL1        0.0875
     15 N          62.8222   82.4855   12.7072 N.ar    1  UNL1       -0.2453
     16 C          62.2948   82.4715   14.1114 C.ar    1  UNL1        0.0858
     17 C          61.9057   81.0621   14.4463 C.ar    1  UNL1        0.0530
     18 S          62.1925   80.2050   13.2492 S.2     1  UNL1       -0.0705
     19 C          63.9995   81.5585    9.9413 C.3     1  UNL1        0.0069
     20 C          63.1870   80.6415   10.8068 C.3     1  UNL1        0.0465
     21 C          62.8026   79.2814   10.3047 C.3     1  UNL1        0.0069
     22 C          62.6688   85.5221    9.9677 C.3     1  UNL1        0.0270
     23 C          63.6523   84.3906   10.0173 C.3     1  UNL1        0.0022
     24 C          62.2293   86.0763    8.6450 C.3     1  UNL1        0.0022
     25 C          62.5638   91.1294   11.2580 C.3     1  UNL1        0.0216
     26 C          63.8973   91.5067   10.6842 C.3     1  UNL1        0.0220
     27 C          65.0625   91.7561   11.5954 C.3     1  UNL1        0.0830
     28 N          64.9130   91.5597   13.0749 N.am    1  UNL1       -0.2456
     29 C          64.3714   90.2669   13.6090 C.3     1  UNL1        0.1182
     30 C          65.3052   92.6562   14.0204 C.2     1  UNL1        0.4052
     31 O          65.8468   93.9490   13.4864 O.2     1  UNL1       -0.2262
     32 O          65.1557   92.4598   15.5000 O.3     1  UNL1       -0.4289
     33 C          66.3584   92.5410   16.3927 C.3     1  UNL1        0.2447
     34 C          67.7183   92.7643   15.8004 C.ar    1  UNL1        0.0714
     35 C          68.3478   91.9530   14.7069 C.ar    1  UNL1        0.1053
     36 N          69.7060   92.5253   14.4283 N.ar    1  UNL1       -0.2350
     37 C          69.9160   93.6903   15.3496 C.ar    1  UNL1        0.1343
     38 S          68.6875   93.8379   16.1976 S.2     1  UNL1       -0.0652
     39 C          66.3771   92.2019   11.0270 C.3     1  UNL1        0.0462
     40 C          66.4721   93.5043   10.2889 C.ar    1  UNL1       -0.0205
     41 C          65.5404   94.6293   10.6298 C.ar    1  UNL1       -0.0042
     42 C          65.6355   95.9316    9.8918 C.ar    1  UNL1       -0.0003
     43 C          66.6623   96.1091    8.8129 C.ar    1  UNL1       -0.0000
     44 C          67.5941   94.9841    8.4720 C.ar    1  UNL1       -0.0003
     45 C          67.4990   93.6817    9.2100 C.ar    1  UNL1       -0.0042
     46 C          60.4255   90.2776   10.0528 C.3     1  UNL1        0.0459
     47 C          59.9422   89.4614    8.8908 C.ar    1  UNL1       -0.0205
     48 C          59.4328   88.0682    9.1131 C.ar    1  UNL1       -0.0042
     49 C          58.9496   87.2520    7.9511 C.ar    1  UNL1       -0.0003
     50 C          58.9757   87.8290    6.5668 C.ar    1  UNL1       -0.0000
     51 C          59.4851   89.2223    6.3445 C.ar    1  UNL1       -0.0003
     52 C          59.9684   90.0384    7.5065 C.ar    1  UNL1       -0.0042
@<TRIPOS>BOND
     1    19    20    1
     2    20    21    1
     3    20    14    1
     4    14    15   ar
     5    15    16   ar
     6    16    13    1
     7    13     7    1
     8     7     8    1
     9     7     9   am
    10     9    10    2
    11     9    11   am
    12     6    11    1
    13     6     2    1
    14     2     3    2
    15     2     4   am
    16     4     1    1
    17     1    25    1
    18    25    26    1
    19    27    26    1
    20    27    39    1
    21    39    40    1
    22    40    41   ar
    23    41    42   ar
    24    42    43   ar
    25    43    44   ar
    26    44    45   ar
    27    27    28    1
    28    28    29    1
    29    28    30   am
    30    30    31    2
    31    30    32    1
    32    32    33    1
    33    33    34    1
    34    34    35   ar
    35    35    36   ar
    36    36    37   ar
    37    37    38   ar
    38     1    46    1
    39    46    47    1
    40    47    48   ar
    41    48    49   ar
    42    49    50   ar
    43    50    51   ar
    44    51    52   ar
    45     6    22    1
    46    22    23    1
    47    22    24    1
    48    16    17   ar
    49    17    18   ar
    50    18    14   ar
    51    45    40   ar
    52    38    34   ar
    53    52    47   ar
    54    11    12    1
    55     4     5    1
@<TRIPOS>MOLECULE
*****
 52 55 0 0 0
SMALL
GASTEIGER

@<TRIPOS>ATOM
      1 C          62.9843   85.4280   13.4207 C.3     1  UNL1        0.0760
      2 C          64.1084   87.4595   14.5868 C.2     1  UNL1        0.2403
      3 O          65.2655   86.5914   14.9837 O.2     1  UNL1       -0.2733
      4 N          62.9678   86.8778   13.8053 N.am    1  UNL1       -0.3043
      5 H          62.2083   87.4475   13.5448 H       1  UNL1        0.1494
      6 C          64.0919   88.9093   14.9714 C.3     1  UNL1        0.1496
      7 N          64.2726   91.4067   11.8924 N.am    1  UNL1       -0.2567
      8 C          63.4296   91.8329   10.7271 C.3     1  UNL1        0.1168
      9 C          63.7608   90.3711   12.8492 C.2     1  UNL1        0.3046
     10 O          62.4061   89.7617   12.6408 O.2     1  UNL1       -0.2526
     11 N          64.6037   89.9449   14.0145 N.am    1  UNL1       -0.2824
     12 H          65.4928   90.3449   14.1513 H       1  UNL1        0.1514
     13 C          65.6272   92.0161   12.1008 C.3     1  UNL1        0.1413
     14 C          66.1489   95.4133   10.2974 C.ar    1  UNL1        0.0875
     15 N          65.8137   93.9516   10.2666 N.ar    1  UNL1       -0.2453
     16 C          65.8882   93.4293   11.6707 C.ar    1  UNL1        0.0858
     17 C          66.2695   94.5682   12.5693 C.ar    1  UNL1        0.0530
     18 S          66.4306   95.7944   11.7206 S.2     1  UNL1       -0.0705
     19 C          67.5116   96.8492    8.6146 C.3     1  UNL1        0.0069
     20 C          66.1944   96.3326    9.1129 C.3     1  UNL1        0.0465
     21 C          64.9228   96.7353    8.4267 C.3     1  UNL1        0.0069
     22 C          63.5635   89.3234   16.3127 C.3     1  UNL1        0.0270
     23 C          63.5325   90.7745   16.6912 C.3     1  UNL1        0.0022
     24 C          63.0662   88.2864   17.2756 C.3     1  UNL1        0.0022
     25 C          62.4769   85.0033   12.0746 C.3     1  UNL1        0.0216
     26 C          61.6034   85.9258   11.2772 C.3     1  UNL1        0.0220
     27 C          61.9807   86.2873    9.8711 C.3     1  UNL1        0.0830
     28 N          61.5682   87.6119    9.3008 N.am    1  UNL1       -0.2456
     29 C          62.2606   88.8670    9.7426 C.3     1  UNL1        0.1182
     30 C          60.4632   87.6814    8.2887 C.2     1  UNL1        0.4052
     31 O          59.7708   86.4263    7.8469 O.2     1  UNL1       -0.2262
     32 O          60.0507   89.0060    7.7185 O.3     1  UNL1       -0.4289
     33 C          58.9651   89.0725    6.6856 C.3     1  UNL1        0.2447
     34 C          58.8543   90.2708    5.7900 C.ar    1  UNL1        0.0714
     35 C          57.5827   90.9607    5.3936 C.ar    1  UNL1        0.1053
     36 N          57.9382   92.1058    4.4923 N.ar    1  UNL1       -0.2350
     37 C          59.4294   92.1236    4.3316 C.ar    1  UNL1        0.1343
     38 S          59.9956   90.9895    5.1336 S.2     1  UNL1       -0.0652
     39 C          62.7705   85.3242    9.0353 C.3     1  UNL1        0.0462
     40 C          63.2466   84.0314    9.6289 C.ar    1  UNL1       -0.0205
     41 C          62.3580   82.8233    9.6058 C.ar    1  UNL1       -0.0042
     42 C          62.8341   81.5306   10.1993 C.ar    1  UNL1       -0.0003
     43 C          64.1988   81.4461   10.8160 C.ar    1  UNL1       -0.0000
     44 C          65.0875   82.6543   10.8391 C.ar    1  UNL1       -0.0003
     45 C          64.6114   83.9469   10.2456 C.ar    1  UNL1       -0.0042
     46 C          63.5084   84.4029   14.3823 C.3     1  UNL1        0.0459
     47 C          63.1080   82.9647   14.2372 C.ar    1  UNL1       -0.0205
     48 C          64.1590   81.9049   14.0881 C.ar    1  UNL1       -0.0042
     49 C          63.7586   80.4667   13.9430 C.ar    1  UNL1       -0.0003
     50 C          62.3072   80.0881   13.9470 C.ar    1  UNL1       -0.0000
     51 C          61.2561   81.1479   14.0961 C.ar    1  UNL1       -0.0003
     52 C          61.6565   82.5862   14.2412 C.ar    1  UNL1       -0.0042
@<TRIPOS>BOND
     1    19    20    1
     2    20    21    1
     3    20    14    1
     4    14    15   ar
     5    15    16   ar
     6    16    13    1
     7    13     7    1
     8     7     8    1
     9     7     9   am
    10     9    10    2
    11     9    11   am
    12     6    11    1
    13     6     2    1
    14     2     3    2
    15     2     4   am
    16     4     1    1
    17     1    25    1
    18    25    26    1
    19    27    26    1
    20    27    39    1
    21    39    40    1
    22    40    41   ar
    23    41    42   ar
    24    42    43   ar
    25    43    44   ar
    26    44    45   ar
    27    27    28    1
    28    28    29    1
    29    28    30   am
    30    30    31    2
    31    30    32    1
    32    32    33    1
    33    33    34    1
    34    34    35   ar
    35    35    36   ar
    36    36    37   ar
    37    37    38   ar
    38     1    46    1
    39    46    47    1
    40    47    48   ar
    41    48    49   ar
    42    49    50   ar
    43    50    51   ar
    44    51    52   ar
    45     6    22    1
    46    22    23    1
    47    22    24    1
    48    16    17   ar
    49    17    18   ar
    50    18    14   ar
    51    45    40   ar
    52    38    34   ar
    53    52    47   ar
    54    11    12    1
    55     4     5    1
