@<TRIPOS>MOLECULE
*****
 36 40 0 0 0
SMALL
GASTEIGER

@<TRIPOS>ATOM
      1 N          63.4909   86.8529   13.0405 N.pl3   1  UNL1       -0.2846
      2 C          64.2580   87.4077   14.2041 C.3     1  UNL1        0.1141
      3 C          64.5118   88.8829   14.3002 C.3     1  UNL1        0.1149
      4 N          63.9986   89.8033   13.2327 N.am    1  UNL1       -0.2760
      5 C          64.2524   91.2786   13.3287 C.2     1  UNL1        0.2257
      6 O          63.7391   92.1990   12.2613 O.2     1  UNL1       -0.2749
      7 C          63.2315   89.2484   12.0692 C.3     1  UNL1        0.1149
      8 C          62.9777   87.7732   11.9731 C.3     1  UNL1        0.1141
      9 C          62.6562   80.5553   11.9232 C.ar    1  UNL1        0.1063
     10 C          62.1576   80.5490   13.3378 C.ar    1  UNL1        0.0199
     11 C          62.1281   81.8235   14.1283 C.ar    1  UNL1        0.0210
     12 C          62.5972   83.1042   13.5042 C.ar    1  UNL1        0.0893
     13 N          62.6845   84.5053   14.0326 N.ar    1  UNL1       -0.2241
     14 C          63.2371   85.3776   12.9445 C.ar    1  UNL1        0.1631
     15 S          63.4913   84.5155   11.7436 S.2     1  UNL1       -0.0515
     16 C          63.0958   83.1105   12.0895 C.ar    1  UNL1        0.0510
     17 C          63.1253   81.8360   11.2990 C.ar    1  UNL1        0.0264
     18 C          62.7152   78.0064   10.3422 C.3     1  UNL1        0.1816
     19 S          62.6857   79.2808   11.1327 S.O2    1  UNL1        0.0105
     20 O          62.4169   78.4985   12.3839 O.2     1  UNL1       -0.1686
     21 O          62.9546   80.0632    9.8814 O.2     1  UNL1       -0.1686
     22 C          65.0194   91.8334   14.4923 C.3     1  UNL1        0.0853
     23 C          64.4894   91.6709   15.8861 C.3     1  UNL1        0.0096
     24 C          65.2564   92.2257   17.0496 C.3     1  UNL1        0.0005
     25 C          66.5535   92.9431   16.8193 C.3     1  UNL1        0.0005
     26 C          67.0834   93.1057   15.4256 C.3     1  UNL1        0.0096
     27 C          66.3164   92.5509   14.2620 C.3     1  UNL1        0.0851
     28 C          66.8464   92.7134   12.8683 C.2     1  UNL1        0.2231
     29 O          68.0145   91.8919   12.4095 O.2     1  UNL1       -0.2751
     30 N          66.2082   93.6976   11.9332 N.am    1  UNL1       -0.2959
     31 H          65.4415   94.2368   12.2343 H       1  UNL1        0.1502
     32 C          66.7382   93.8601   10.5394 C.3     1  UNL1        0.1364
     33 C          67.2481   93.5030    9.1747 C.3     1  UNL1        0.0353
     34 C          66.8646   92.4201   10.1392 C.3     1  UNL1        0.0353
     35 C          66.7959   95.3567   10.4555 C.1     1  UNL1        0.0896
     36 N          66.8536   96.8532   10.3716 N.1     1  UNL1       -0.1943
@<TRIPOS>BOND
     1    18    19    1
     2    19    20    2
     3    19    21    2
     4    19     9    1
     5     9    10   ar
     6    10    11   ar
     7    11    12   ar
     8    12    13   ar
     9    13    14   ar
    10    14     1    1
    11     1     2    1
    12     2     3    1
    13     3     4    1
    14     4     5   am
    15     5     6    2
    16    22     5    1
    17    22    23    1
    18    23    24    1
    19    24    25    1
    20    25    26    1
    21    26    27    1
    22    27    28    1
    23    28    29    2
    24    28    30   am
    25    30    32    1
    26    32    35    1
    27    35    36    3
    28    32    33    1
    29    33    34    1
    30     4     7    1
    31     7     8    1
    32    14    15   ar
    33    15    16   ar
    34    16    17   ar
    35    17     9   ar
    36    16    12   ar
    37     8     1    1
    38    27    22    1
    39    34    32    1
    40    30    31    1
@<TRIPOS>MOLECULE
*****
 36 40 0 0 0
SMALL
GASTEIGER

@<TRIPOS>ATOM
      1 N          61.2804   93.2177    1.5481 N.pl3   1  UNL1       -0.2846
      2 C          61.4332   92.5313    0.2231 C.3     1  UNL1        0.1141
      3 C          62.0281   93.2691   -0.9396 C.3     1  UNL1        0.1149
      4 N          62.4701   94.6932   -0.7773 N.am    1  UNL1       -0.2760
      5 C          63.0649   95.4311   -1.9400 C.2     1  UNL1        0.2257
      6 O          63.5069   96.8552   -1.7777 O.2     1  UNL1       -0.2749
      7 C          62.3173   95.3796    0.5477 C.3     1  UNL1        0.1149
      8 C          61.7224   94.6419    1.7103 C.3     1  UNL1        0.1141
      9 C          59.4068   89.7551    6.6573 C.ar    1  UNL1        0.1063
     10 C          58.0729   90.3783    6.3703 C.ar    1  UNL1        0.0199
     11 C          57.9211   91.3288    5.2199 C.ar    1  UNL1        0.0210
     12 C          59.1032   91.6562    4.3565 C.ar    1  UNL1        0.0893
     13 N          59.2568   92.5504    3.1620 N.ar    1  UNL1       -0.2241
     14 C          60.6856   92.4799    2.7108 C.ar    1  UNL1        0.1631
     15 S          61.4151   91.5421    3.6264 S.2     1  UNL1       -0.0515
     16 C          60.4370   91.0330    4.6435 C.ar    1  UNL1        0.0510
     17 C          60.5888   90.0825    5.7939 C.ar    1  UNL1        0.0264
     18 C          59.7103   87.8540    8.9581 C.3     1  UNL1        0.1816
     19 S          59.5585   88.8046    7.8077 S.O2    1  UNL1        0.0105
     20 O          60.2048   89.8887    8.6182 O.2     1  UNL1       -0.1686
     21 O          58.9123   87.7204    6.9972 O.2     1  UNL1       -0.1686
     22 C          63.2177   94.7447   -3.2650 C.3     1  UNL1        0.0853
     23 C          64.5474   94.1790   -3.6676 C.3     1  UNL1        0.0096
     24 C          64.7002   93.4925   -4.9926 C.3     1  UNL1        0.0005
     25 C          63.5233   93.3718   -5.9149 C.3     1  UNL1        0.0005
     26 C          62.1938   93.9375   -5.5122 C.3     1  UNL1        0.0096
     27 C          62.0410   94.6239   -4.1872 C.3     1  UNL1        0.0851
     28 C          60.7114   95.1896   -3.7845 C.2     1  UNL1        0.2231
     29 O          60.5283   96.6748   -3.6817 O.2     1  UNL1       -0.2751
     30 N          59.5648   94.2700   -3.4847 N.am    1  UNL1       -0.2959
     31 H          59.6850   93.2952   -3.5521 H       1  UNL1        0.1502
     32 C          58.2353   94.8357   -3.0820 C.3     1  UNL1        0.1364
     33 C          56.8383   95.3703   -3.1949 C.3     1  UNL1        0.0353
     34 C          57.5796   94.9427   -4.4268 C.3     1  UNL1        0.0353
     35 C          58.4291   94.9252   -1.5972 C.1     1  UNL1        0.0896
     36 N          58.6230   95.0147   -0.1125 N.1     1  UNL1       -0.1943
@<TRIPOS>BOND
     1    18    19    1
     2    19    20    2
     3    19    21    2
     4    19     9    1
     5     9    10   ar
     6    10    11   ar
     7    11    12   ar
     8    12    13   ar
     9    13    14   ar
    10    14     1    1
    11     1     2    1
    12     2     3    1
    13     3     4    1
    14     4     5   am
    15     5     6    2
    16    22     5    1
    17    22    23    1
    18    23    24    1
    19    24    25    1
    20    25    26    1
    21    26    27    1
    22    27    28    1
    23    28    29    2
    24    28    30   am
    25    30    32    1
    26    32    35    1
    27    35    36    3
    28    32    33    1
    29    33    34    1
    30     4     7    1
    31     7     8    1
    32    14    15   ar
    33    15    16   ar
    34    16    17   ar
    35    17     9   ar
    36    16    12   ar
    37     8     1    1
    38    27    22    1
    39    34    32    1
    40    30    31    1
