@<TRIPOS>MOLECULE
*****
 48 52 0 0 0
SMALL
GASTEIGER

@<TRIPOS>ATOM
      1 C          61.0812   88.1126    9.4363 C.3     1  UNL1        0.1934
      2 C          63.2148   90.0733   12.1479 C.ar    1  UNL1        0.0574
      3 C          62.3552   89.7962   10.9503 C.ar    1  UNL1        0.0786
      4 N          61.9408   88.3898   10.6339 N.ar    1  UNL1       -0.2979
      5 C          62.3861   87.2605   11.5150 C.ar    1  UNL1        0.1750
      6 N          63.2457   87.5376   12.7126 N.ar    1  UNL1       -0.1847
      7 C          63.6601   88.9440   13.0291 C.ar    1  UNL1        0.2786
      8 O          64.5197   89.2212   14.2267 O.2     1  UNL1       -0.2654
      9 C          63.6293   91.4798   12.4644 C.3     1  UNL1        0.0622
     10 C          67.6180   93.3104    9.5285 C.3     1  UNL1        0.1537
     11 N          66.8147   92.8172   10.6953 N.ar    1  UNL1       -0.2477
     12 C          65.3761   92.3939   10.6594 C.ar    1  UNL1        0.0927
     13 C          64.9813   91.9757   12.0448 C.ar    1  UNL1        0.0220
     14 C          66.1759   92.1406   12.9369 C.ar    1  UNL1        0.1177
     15 N          67.3090   92.6606   12.1029 N.ar    1  UNL1       -0.1679
     16 S          61.9716   85.8540   11.1986 S.3     1  UNL1       -0.0724
     17 C          63.0116   84.7882   11.0183 C.3     1  UNL1        0.0913
     18 C          62.9357   83.5229   11.8205 C.ar    1  UNL1       -0.0108
     19 C          63.0827   82.1940   11.1407 C.ar    1  UNL1       -0.0011
     20 C          63.0068   80.9288   11.9429 C.ar    1  UNL1        0.0293
     21 C          62.7841   80.9926   13.4249 C.ar    1  UNL1        0.1401
     22 F          62.7082   79.7273   14.2270 F       1  UNL1       -0.2042
     23 C          62.6371   82.3216   14.1047 C.ar    1  UNL1        0.0293
     24 C          62.7130   83.5867   13.3025 C.ar    1  UNL1       -0.0011
     25 C          60.2704   89.2159    8.8235 C.2     1  UNL1        0.2493
     26 O          60.0796   90.5065    9.5639 O.2     1  UNL1       -0.2727
     27 N          59.6505   89.0286    7.4706 N.am    1  UNL1       -0.2685
     28 C          59.8412   87.7380    6.7303 C.3     1  UNL1        0.1355
     29 C          59.3479   86.4523    7.3249 C.2     1  UNL1        0.0705
     30 O          60.1050   85.1787    7.0910 O.co2   1  UNL1       -0.5474
     31 O          58.0976   86.4403    8.1534 O.co2   1  UNL1       -0.5474
     32 C          58.8397   90.1319    6.8579 C.3     1  UNL1        0.1205
     33 C          59.3685   90.8809    5.6708 C.ar    1  UNL1       -0.0023
     34 C          58.4434   91.7211    4.8411 C.ar    1  UNL1       -0.0026
     35 C          58.9722   92.4702    3.6540 C.ar    1  UNL1       -0.0003
     36 C          60.4262   92.3791    3.2965 C.ar    1  UNL1       -0.0000
     37 C          61.3513   91.5390    4.1262 C.ar    1  UNL1       -0.0003
     38 C          60.8225   90.7899    5.3133 C.ar    1  UNL1       -0.0026
     39 C          60.9550   93.1281    2.1095 C.ar    1  UNL1       -0.0000
     40 C          60.1910   94.2953    1.5579 C.ar    1  UNL1       -0.0001
     41 C          60.7199   95.0443    0.3708 C.ar    1  UNL1        0.0039
     42 C          62.0127   94.6263   -0.2648 C.ar    1  UNL1        0.0714
     43 C          62.7766   93.4592    0.2868 C.ar    1  UNL1        0.0039
     44 C          62.2478   92.7101    1.4739 C.ar    1  UNL1       -0.0001
     45 C          62.5415   95.3754   -1.4519 C.3     1  UNL1        0.4186
     46 F          63.0703   96.1245   -2.6390 F       1  UNL1       -0.1659
     47 F          61.2938   96.2074   -1.4827 F       1  UNL1       -0.1659
     48 F          63.7892   94.5434   -1.4211 F       1  UNL1       -0.1659
@<TRIPOS>UNITY_ATOM_ATTR
30 1
charge -1
@<TRIPOS>BOND
     1    10    11    1
     2    11    12   ar
     3    12    13   ar
     4    13     9    1
     5     9     2    1
     6     2     3   ar
     7     3     4   ar
     8     4     1    1
     9     1    25    1
    10    25    26    2
    11    25    27   am
    12    27    28    1
    13    28    29    1
    14    29    30   ar
    15    29    31   ar
    16    27    32    1
    17    32    33    1
    18    33    34   ar
    19    34    35   ar
    20    35    36   ar
    21    36    39    1
    22    39    40   ar
    23    40    41   ar
    24    41    42   ar
    25    42    45    1
    26    45    46    1
    27    45    47    1
    28    45    48    1
    29    42    43   ar
    30    43    44   ar
    31    36    37   ar
    32    37    38   ar
    33     4     5   ar
    34     5    16    1
    35    16    17    1
    36    17    18    1
    37    18    19   ar
    38    19    20   ar
    39    20    21   ar
    40    21    22    1
    41    21    23   ar
    42    23    24   ar
    43     5     6   ar
    44     6     7   ar
    45     7     8    2
    46    13    14   ar
    47    14    15   ar
    48    15    11   ar
    49     7     2   ar
    50    38    33   ar
    51    24    18   ar
    52    44    39   ar
@<TRIPOS>MOLECULE
*****
 48 52 0 0 0
SMALL
GASTEIGER

@<TRIPOS>ATOM
      1 C          63.0307   87.4392   12.5050 C.3     1  UNL1        0.1934
      2 C          64.5624   91.0533   13.0896 C.ar    1  UNL1        0.0574
      3 C          63.8658   89.8984   12.4333 C.ar    1  UNL1        0.0786
      4 N          63.7273   88.5942   13.1613 N.ar    1  UNL1       -0.2979
      5 C          64.2855   88.4451   14.5456 C.ar    1  UNL1        0.1750
      6 N          64.9821   89.6000   15.2019 N.ar    1  UNL1       -0.1847
      7 C          65.1206   90.9042   14.4739 C.ar    1  UNL1        0.2786
      8 O          65.8172   92.0592   15.1301 O.2     1  UNL1       -0.2654
      9 C          64.7009   92.3576   12.3616 C.3     1  UNL1        0.0622
     10 C          67.9331   94.3197    8.6761 C.3     1  UNL1        0.1537
     11 N          67.4058   93.5287    9.8364 N.ar    1  UNL1       -0.2477
     12 C          66.0048   93.5739   10.3704 C.ar    1  UNL1        0.0927
     13 C          65.9201   92.6268   11.5305 C.ar    1  UNL1        0.0220
     14 C          67.2688   91.9961   11.7134 C.ar    1  UNL1        0.1177
     15 N          68.1870   92.5535   10.6664 N.ar    1  UNL1       -0.1679
     16 S          64.1470   87.1408   15.2736 S.3     1  UNL1       -0.0724
     17 C          64.8958   85.9321   14.7959 C.3     1  UNL1        0.0913
     18 C          64.1458   84.7030   14.3752 C.ar    1  UNL1       -0.0108
     19 C          62.9591   84.2406   15.1676 C.ar    1  UNL1       -0.0011
     20 C          62.2092   83.0115   14.7469 C.ar    1  UNL1        0.0293
     21 C          62.6459   82.2450   13.5338 C.ar    1  UNL1        0.1401
     22 F          61.8959   81.0159   13.1131 F       1  UNL1       -0.2042
     23 C          63.8325   82.7074   12.7414 C.ar    1  UNL1        0.0293
     24 C          64.5825   83.9364   13.1621 C.ar    1  UNL1       -0.0011
     25 C          61.7534   87.6638   11.7513 C.2     1  UNL1        0.2493
     26 O          61.0171   88.9629   11.8937 O.2     1  UNL1       -0.2727
     27 N          61.2124   86.5894   10.8553 N.am    1  UNL1       -0.2685
     28 C          61.9487   85.2903   10.7129 C.3     1  UNL1        0.1355
     29 C          62.8361   85.0573    9.5262 C.2     1  UNL1        0.0705
     30 O          62.8557   86.0464    8.3987 O.co2   1  UNL1       -0.5474
     31 O          63.7038   83.8352    9.4671 O.co2   1  UNL1       -0.5474
     32 C          59.9351   86.8140   10.1016 C.3     1  UNL1        0.1205
     33 C          59.9030   87.7739    8.9494 C.ar    1  UNL1       -0.0023
     34 C          60.4269   89.1691    9.1207 C.ar    1  UNL1       -0.0026
     35 C          60.3948   90.1290    7.9685 C.ar    1  UNL1       -0.0003
     36 C          59.8388   89.6938    6.6451 C.ar    1  UNL1       -0.0000
     37 C          59.3150   88.2988    6.4738 C.ar    1  UNL1       -0.0003
     38 C          59.3471   87.3388    7.6260 C.ar    1  UNL1       -0.0026
     39 C          59.8067   90.6537    5.4929 C.ar    1  UNL1       -0.0000
     40 C          61.0702   90.9798    4.7529 C.ar    1  UNL1       -0.0001
     41 C          61.0381   91.9397    3.6007 C.ar    1  UNL1        0.0039
     42 C          59.7426   92.5736    3.1885 C.ar    1  UNL1        0.0714
     43 C          58.4792   92.2476    3.9285 C.ar    1  UNL1        0.0039
     44 C          58.5113   91.2876    5.0807 C.ar    1  UNL1       -0.0001
     45 C          59.7105   93.5335    2.0363 C.3     1  UNL1        0.4186
     46 F          59.6785   94.4934    0.8841 F       1  UNL1       -0.1659
     47 F          60.0919   94.6533    2.9586 F       1  UNL1       -0.1659
     48 F          59.3291   92.4137    1.1141 F       1  UNL1       -0.1659
@<TRIPOS>UNITY_ATOM_ATTR
30 1
charge -1
@<TRIPOS>BOND
     1    10    11    1
     2    11    12   ar
     3    12    13   ar
     4    13     9    1
     5     9     2    1
     6     2     3   ar
     7     3     4   ar
     8     4     1    1
     9     1    25    1
    10    25    26    2
    11    25    27   am
    12    27    28    1
    13    28    29    1
    14    29    30   ar
    15    29    31   ar
    16    27    32    1
    17    32    33    1
    18    33    34   ar
    19    34    35   ar
    20    35    36   ar
    21    36    39    1
    22    39    40   ar
    23    40    41   ar
    24    41    42   ar
    25    42    45    1
    26    45    46    1
    27    45    47    1
    28    45    48    1
    29    42    43   ar
    30    43    44   ar
    31    36    37   ar
    32    37    38   ar
    33     4     5   ar
    34     5    16    1
    35    16    17    1
    36    17    18    1
    37    18    19   ar
    38    19    20   ar
    39    20    21   ar
    40    21    22    1
    41    21    23   ar
    42    23    24   ar
    43     5     6   ar
    44     6     7   ar
    45     7     8    2
    46    13    14   ar
    47    14    15   ar
    48    15    11   ar
    49     7     2   ar
    50    38    33   ar
    51    24    18   ar
    52    44    39   ar
@<TRIPOS>MOLECULE
*****
 48 52 0 0 0
SMALL
GASTEIGER

@<TRIPOS>ATOM
      1 C          62.7378   90.1459   13.5516 C.3     1  UNL1        0.1934
      2 C          65.5982   92.3100   11.8533 C.ar    1  UNL1        0.0574
      3 C          64.8325   91.5279   12.8788 C.ar    1  UNL1        0.0786
      4 N          63.5037   90.9281   12.5261 N.ar    1  UNL1       -0.2979
      5 C          62.9406   91.1104   11.1477 C.ar    1  UNL1        0.1750
      6 N          63.7064   91.8926   10.1222 N.ar    1  UNL1       -0.1847
      7 C          65.0352   92.4924   10.4750 C.ar    1  UNL1        0.2786
      8 O          65.8011   93.2746    9.4494 O.2     1  UNL1       -0.2654
      9 C          66.9271   92.9098   12.2060 C.3     1  UNL1        0.0622
     10 C          69.3553   91.8866   16.7818 C.3     1  UNL1        0.1537
     11 N          68.4743   92.5165   15.7439 N.ar    1  UNL1       -0.2477
     12 C          68.3441   92.0795   14.3149 C.ar    1  UNL1        0.0927
     13 C          67.3582   92.9868   13.6407 C.ar    1  UNL1        0.0220
     14 C          66.8789   93.9846   14.6530 C.ar    1  UNL1        0.1177
     15 N          67.5687   93.6939   15.9529 N.ar    1  UNL1       -0.1679
     16 S          61.6118   90.5106   10.7950 S.3     1  UNL1       -0.0724
     17 C          61.3200   89.0798   11.1379 C.3     1  UNL1        0.0913
     18 C          61.1793   88.0606   10.0463 C.ar    1  UNL1       -0.0108
     19 C          62.2672   87.0540    9.8153 C.ar    1  UNL1       -0.0011
     20 C          62.1265   86.0349    8.7237 C.ar    1  UNL1        0.0293
     21 C          60.8980   86.0224    7.8631 C.ar    1  UNL1        0.1401
     22 F          60.7573   85.0032    6.7715 F       1  UNL1       -0.2042
     23 C          59.8101   87.0289    8.0941 C.ar    1  UNL1        0.0293
     24 C          59.9508   88.0480    9.1857 C.ar    1  UNL1       -0.0011
     25 C          63.2877   88.8507   14.0714 C.2     1  UNL1        0.2493
     26 O          63.5997   87.7331   13.1209 O.2     1  UNL1       -0.2727
     27 N          63.5256   88.6732   15.5417 N.am    1  UNL1       -0.2685
     28 C          63.2137   89.7909   16.4923 C.3     1  UNL1        0.1355
     29 C          63.9037   91.1147   16.3459 C.2     1  UNL1        0.0705
     30 O          63.2155   92.3722   16.7876 O.co2   1  UNL1       -0.5474
     31 O          65.2820   91.1809   15.7577 O.co2   1  UNL1       -0.5474
     32 C          64.0755   87.3781   16.0615 C.3     1  UNL1        0.1205
     33 C          63.8792   86.1126   15.2805 C.ar    1  UNL1       -0.0023
     34 C          65.0051   85.5545   14.4614 C.ar    1  UNL1       -0.0026
     35 C          64.8087   84.2890   13.6804 C.ar    1  UNL1       -0.0003
     36 C          63.4865   83.5817   13.7185 C.ar    1  UNL1       -0.0000
     37 C          62.3607   84.1398   14.5376 C.ar    1  UNL1       -0.0003
     38 C          62.5570   85.4053   15.3186 C.ar    1  UNL1       -0.0026
     39 C          63.2901   82.3162   12.9375 C.ar    1  UNL1       -0.0000
     40 C          63.4790   82.3163   11.4494 C.ar    1  UNL1       -0.0001
     41 C          63.2827   81.0508   10.6684 C.ar    1  UNL1        0.0039
     42 C          62.8974   79.7852   11.3754 C.ar    1  UNL1        0.0714
     43 C          62.7085   79.7851   12.8634 C.ar    1  UNL1        0.0039
     44 C          62.9049   81.0506   13.6445 C.ar    1  UNL1       -0.0001
     45 C          62.7010   78.5197   10.5943 C.3     1  UNL1        0.4186
     46 F          62.5047   77.2543    9.8132 F       1  UNL1       -0.1659
     47 F          62.7421   77.7276   11.8673 F       1  UNL1       -0.1659
     48 F          62.6599   79.3119    9.3212 F       1  UNL1       -0.1659
@<TRIPOS>UNITY_ATOM_ATTR
30 1
charge -1
@<TRIPOS>BOND
     1    10    11    1
     2    11    12   ar
     3    12    13   ar
     4    13     9    1
     5     9     2    1
     6     2     3   ar
     7     3     4   ar
     8     4     1    1
     9     1    25    1
    10    25    26    2
    11    25    27   am
    12    27    28    1
    13    28    29    1
    14    29    30   ar
    15    29    31   ar
    16    27    32    1
    17    32    33    1
    18    33    34   ar
    19    34    35   ar
    20    35    36   ar
    21    36    39    1
    22    39    40   ar
    23    40    41   ar
    24    41    42   ar
    25    42    45    1
    26    45    46    1
    27    45    47    1
    28    45    48    1
    29    42    43   ar
    30    43    44   ar
    31    36    37   ar
    32    37    38   ar
    33     4     5   ar
    34     5    16    1
    35    16    17    1
    36    17    18    1
    37    18    19   ar
    38    19    20   ar
    39    20    21   ar
    40    21    22    1
    41    21    23   ar
    42    23    24   ar
    43     5     6   ar
    44     6     7   ar
    45     7     8    2
    46    13    14   ar
    47    14    15   ar
    48    15    11   ar
    49     7     2   ar
    50    38    33   ar
    51    24    18   ar
    52    44    39   ar
@<TRIPOS>MOLECULE
*****
 48 52 0 0 0
SMALL
GASTEIGER

@<TRIPOS>ATOM
      1 C          62.9273   87.2165   12.2905 C.3     1  UNL1        0.1934
      2 C          64.0552   90.9961   11.8524 C.ar    1  UNL1        0.0574
      3 C          63.5004   89.6375   11.5421 C.ar    1  UNL1        0.0786
      4 N          63.4822   88.5751   12.6008 N.ar    1  UNL1       -0.2979
      5 C          64.0189   88.8713   13.9698 C.ar    1  UNL1        0.1750
      6 N          64.5737   90.2299   14.2801 N.ar    1  UNL1       -0.1847
      7 C          64.5919   91.2923   13.2214 C.ar    1  UNL1        0.2786
      8 O          65.1468   92.6509   13.5317 O.2     1  UNL1       -0.2654
      9 C          64.0734   92.0586   10.7937 C.3     1  UNL1        0.0622
     10 C          67.2905   96.1865   10.0925 C.3     1  UNL1        0.1537
     11 N          66.7848   94.7844   10.2613 N.ar    1  UNL1       -0.2477
     12 C          65.3540   94.3813   10.4617 C.ar    1  UNL1        0.0927
     13 C          65.3061   92.8870   10.5836 C.ar    1  UNL1        0.0220
     14 C          66.7074   92.3666   10.4585 C.ar    1  UNL1        0.1177
     15 N          67.6213   93.5392   10.2593 N.ar    1  UNL1       -0.1679
     16 S          64.0007   87.8088   15.0285 S.3     1  UNL1       -0.0724
     17 C          64.8688   86.5938   14.8868 C.3     1  UNL1        0.0913
     18 C          64.2435   85.2413   14.7138 C.ar    1  UNL1       -0.0108
     19 C          64.7542   84.3087   13.6558 C.ar    1  UNL1       -0.0011
     20 C          64.1289   82.9563   13.4828 C.ar    1  UNL1        0.0293
     21 C          62.9930   82.5364   14.3679 C.ar    1  UNL1        0.1401
     22 F          62.3678   81.1839   14.1950 F       1  UNL1       -0.2042
     23 C          62.4824   83.4690   15.4260 C.ar    1  UNL1        0.0293
     24 C          63.1076   84.8214   15.5989 C.ar    1  UNL1       -0.0011
     25 C          61.9728   87.0394   11.1470 C.2     1  UNL1        0.2493
     26 O          62.3949   86.2710    9.9298 O.2     1  UNL1       -0.2727
     27 N          60.5963   87.6308   11.2206 N.am    1  UNL1       -0.2685
     28 C          60.1742   88.3992   12.4378 C.3     1  UNL1        0.1355
     29 C          58.9345   89.2427   12.3997 C.2     1  UNL1        0.0705
     30 O          58.9503   90.5681   11.6975 O.co2   1  UNL1       -0.5474
     31 O          57.6788   88.7608   13.0637 O.co2   1  UNL1       -0.5474
     32 C          59.6418   87.4538   10.0771 C.3     1  UNL1        0.1205
     33 C          59.7519   88.3312    8.8655 C.ar    1  UNL1       -0.0023
     34 C          60.5535   89.5976    8.9269 C.ar    1  UNL1       -0.0026
     35 C          60.6636   90.4750    7.7154 C.ar    1  UNL1       -0.0003
     36 C          59.9721   90.0862    6.4424 C.ar    1  UNL1       -0.0000
     37 C          59.1705   88.8199    6.3809 C.ar    1  UNL1       -0.0003
     38 C          59.0603   87.9423    7.5925 C.ar    1  UNL1       -0.0026
     39 C          60.0822   90.9636    5.2308 C.ar    1  UNL1       -0.0000
     40 C          61.3988   91.1086    4.5269 C.ar    1  UNL1       -0.0001
     41 C          61.5089   91.9860    3.3153 C.ar    1  UNL1        0.0039
     42 C          60.3024   92.7185    2.8076 C.ar    1  UNL1        0.0714
     43 C          58.9858   92.5735    3.5115 C.ar    1  UNL1        0.0039
     44 C          58.8756   91.6961    4.7231 C.ar    1  UNL1       -0.0001
     45 C          60.4125   93.5960    1.5960 C.3     1  UNL1        0.4186
     46 F          60.5226   94.4734    0.3844 F       1  UNL1       -0.1659
     47 F          61.8373   93.9048    1.9491 F       1  UNL1       -0.1659
     48 F          58.9878   93.2872    1.2429 F       1  UNL1       -0.1659
@<TRIPOS>UNITY_ATOM_ATTR
30 1
charge -1
@<TRIPOS>BOND
     1    10    11    1
     2    11    12   ar
     3    12    13   ar
     4    13     9    1
     5     9     2    1
     6     2     3   ar
     7     3     4   ar
     8     4     1    1
     9     1    25    1
    10    25    26    2
    11    25    27   am
    12    27    28    1
    13    28    29    1
    14    29    30   ar
    15    29    31   ar
    16    27    32    1
    17    32    33    1
    18    33    34   ar
    19    34    35   ar
    20    35    36   ar
    21    36    39    1
    22    39    40   ar
    23    40    41   ar
    24    41    42   ar
    25    42    45    1
    26    45    46    1
    27    45    47    1
    28    45    48    1
    29    42    43   ar
    30    43    44   ar
    31    36    37   ar
    32    37    38   ar
    33     4     5   ar
    34     5    16    1
    35    16    17    1
    36    17    18    1
    37    18    19   ar
    38    19    20   ar
    39    20    21   ar
    40    21    22    1
    41    21    23   ar
    42    23    24   ar
    43     5     6   ar
    44     6     7   ar
    45     7     8    2
    46    13    14   ar
    47    14    15   ar
    48    15    11   ar
    49     7     2   ar
    50    38    33   ar
    51    24    18   ar
    52    44    39   ar
@<TRIPOS>MOLECULE
*****
 48 52 0 0 0
SMALL
GASTEIGER

@<TRIPOS>ATOM
      1 C          63.2582   90.0678   13.6729 C.3     1  UNL1        0.1934
      2 C          60.9473   89.2656   10.5478 C.ar    1  UNL1        0.0574
      3 C          61.5596   89.1878   11.9149 C.ar    1  UNL1        0.0786
      4 N          62.6458   90.1456   12.3058 N.ar    1  UNL1       -0.2979
      5 C          63.1198   91.1810   11.3295 C.ar    1  UNL1        0.1750
      6 N          62.5075   91.2588    9.9624 N.ar    1  UNL1       -0.1847
      7 C          61.4213   90.3011    9.5716 C.ar    1  UNL1        0.2786
      8 O          60.8089   90.3789    8.2044 O.2     1  UNL1       -0.2654
      9 C          59.8610   88.3079   10.1569 C.3     1  UNL1        0.0622
     10 C          62.2348   84.8003    7.0039 C.3     1  UNL1        0.1537
     11 N          61.1960   85.6860    7.6254 N.ar    1  UNL1       -0.2477
     12 C          61.4064   86.6100    8.7882 C.ar    1  UNL1        0.0927
     13 C          60.1048   87.2983    9.0747 C.ar    1  UNL1        0.0220
     14 C          59.0900   86.7998    8.0890 C.ar    1  UNL1        0.1177
     15 N          59.7643   85.8033    7.1933 N.ar    1  UNL1       -0.1679
     16 S          64.2061   92.1388   11.7204 S.3     1  UNL1       -0.0724
     17 C          65.5591   92.0400   11.0805 C.3     1  UNL1        0.0913
     18 C          66.1680   93.2434   10.4240 C.ar    1  UNL1       -0.0108
     19 C          67.3174   93.0787    9.4744 C.ar    1  UNL1       -0.0011
     20 C          67.9262   94.2821    8.8179 C.ar    1  UNL1        0.0293
     21 C          67.3857   95.6503    9.1110 C.ar    1  UNL1        0.1401
     22 F          67.9946   96.8538    8.4545 F       1  UNL1       -0.2042
     23 C          66.2363   95.8151   10.0606 C.ar    1  UNL1        0.0293
     24 C          65.6275   94.6116   10.7171 C.ar    1  UNL1       -0.0011
     25 C          63.5778   88.7324   14.2767 C.2     1  UNL1        0.2493
     26 O          63.8766   87.5603   13.3895 O.2     1  UNL1       -0.2727
     27 N          63.5985   88.5690   15.7676 N.am    1  UNL1       -0.2685
     28 C          63.2996   89.7410   16.6548 C.3     1  UNL1        0.1355
     29 C          63.9282   91.0737   16.3742 C.2     1  UNL1        0.0705
     30 O          65.2431   91.1463   15.6560 O.co2   1  UNL1       -0.5474
     31 O          63.2420   92.3336   16.8117 O.co2   1  UNL1       -0.5474
     32 C          63.9181   87.2336   16.3714 C.3     1  UNL1        0.1205
     33 C          63.7455   85.9833   15.5608 C.ar    1  UNL1       -0.0023
     34 C          62.4650   85.2063   15.6440 C.ar    1  UNL1       -0.0026
     35 C          62.2924   83.9561   14.8334 C.ar    1  UNL1       -0.0003
     36 C          63.4002   83.4828   13.9396 C.ar    1  UNL1       -0.0000
     37 C          64.6805   84.2597   13.8564 C.ar    1  UNL1       -0.0003
     38 C          64.8532   85.5101   14.6670 C.ar    1  UNL1       -0.0026
     39 C          63.2275   82.2326   13.1291 C.ar    1  UNL1       -0.0000
     40 C          63.6202   82.2171   11.6814 C.ar    1  UNL1       -0.0001
     41 C          63.4476   80.9668   10.8708 C.ar    1  UNL1        0.0039
     42 C          62.8823   79.7321   11.5078 C.ar    1  UNL1        0.0714
     43 C          62.4896   79.7475   12.9554 C.ar    1  UNL1        0.0039
     44 C          62.6622   80.9978   13.7661 C.ar    1  UNL1       -0.0001
     45 C          62.7097   78.4818   10.6972 C.3     1  UNL1        0.4186
     46 F          62.5371   77.2315    9.8866 F       1  UNL1       -0.1659
     47 F          62.6454   79.3032    9.4438 F       1  UNL1       -0.1659
     48 F          62.7740   77.6603   11.9506 F       1  UNL1       -0.1659
@<TRIPOS>UNITY_ATOM_ATTR
30 1
charge -1
@<TRIPOS>BOND
     1    10    11    1
     2    11    12   ar
     3    12    13   ar
     4    13     9    1
     5     9     2    1
     6     2     3   ar
     7     3     4   ar
     8     4     1    1
     9     1    25    1
    10    25    26    2
    11    25    27   am
    12    27    28    1
    13    28    29    1
    14    29    30   ar
    15    29    31   ar
    16    27    32    1
    17    32    33    1
    18    33    34   ar
    19    34    35   ar
    20    35    36   ar
    21    36    39    1
    22    39    40   ar
    23    40    41   ar
    24    41    42   ar
    25    42    45    1
    26    45    46    1
    27    45    47    1
    28    45    48    1
    29    42    43   ar
    30    43    44   ar
    31    36    37   ar
    32    37    38   ar
    33     4     5   ar
    34     5    16    1
    35    16    17    1
    36    17    18    1
    37    18    19   ar
    38    19    20   ar
    39    20    21   ar
    40    21    22    1
    41    21    23   ar
    42    23    24   ar
    43     5     6   ar
    44     6     7   ar
    45     7     8    2
    46    13    14   ar
    47    14    15   ar
    48    15    11   ar
    49     7     2   ar
    50    38    33   ar
    51    24    18   ar
    52    44    39   ar
@<TRIPOS>MOLECULE
*****
 48 52 0 0 0
SMALL
GASTEIGER

@<TRIPOS>ATOM
      1 C          62.4854   86.2411   11.1121 C.3     1  UNL1        0.1934
      2 C          63.4817   89.7667   12.6375 C.ar    1  UNL1        0.0574
      3 C          62.9967   88.7260   11.6724 C.ar    1  UNL1        0.0786
      4 N          62.9705   87.2819   12.0772 N.ar    1  UNL1       -0.2979
      5 C          63.4294   86.8786   13.4472 C.ar    1  UNL1        0.1750
      6 N          63.9144   87.9193   14.4123 N.ar    1  UNL1       -0.1847
      7 C          63.9406   89.3634   14.0075 C.ar    1  UNL1        0.2786
      8 O          64.4257   90.4042   14.9726 O.2     1  UNL1       -0.2654
      9 C          63.5079   91.2109   12.2327 C.3     1  UNL1        0.0622
     10 C          67.4307   93.5289    9.5646 C.3     1  UNL1        0.1537
     11 N          66.6156   92.9395   10.6774 N.ar    1  UNL1       -0.2477
     12 C          65.2485   92.3366   10.5451 C.ar    1  UNL1        0.0927
     13 C          64.8125   91.8740   11.9038 C.ar    1  UNL1        0.0220
     14 C          65.9102   92.1910   12.8757 C.ar    1  UNL1        0.1177
     15 N          67.0246   92.8495   12.1178 N.ar    1  UNL1       -0.1679
     16 S          63.4031   85.4344   13.8520 S.3     1  UNL1       -0.0724
     17 C          64.4490   84.4915   13.3351 C.3     1  UNL1        0.0913
     18 C          64.0545   83.3445   12.4526 C.ar    1  UNL1       -0.0108
     19 C          63.2251   82.2236   13.0054 C.ar    1  UNL1       -0.0011
     20 C          62.8306   81.0767   12.1229 C.ar    1  UNL1        0.0293
     21 C          63.2655   81.0507   10.6875 C.ar    1  UNL1        0.1401
     22 F          62.8710   79.9037    9.8050 F       1  UNL1       -0.2042
     23 C          64.0950   82.1716   10.1348 C.ar    1  UNL1        0.0293
     24 C          64.4894   83.3185   11.0173 C.ar    1  UNL1       -0.0011
     25 C          61.4178   86.5822   10.1151 C.2     1  UNL1        0.2493
     26 O          61.5381   86.1102    8.6964 O.2     1  UNL1       -0.2727
     27 N          60.2300   87.3954   10.5368 N.am    1  UNL1       -0.2685
     28 C          60.1097   87.8674   11.9556 C.3     1  UNL1        0.1355
     29 C          59.2379   89.0432   12.2835 C.2     1  UNL1        0.0705
     30 O          58.0297   88.8614   13.1536 O.co2   1  UNL1       -0.5474
     31 O          59.5743   90.4006   11.7412 O.co2   1  UNL1       -0.5474
     32 C          59.1625   87.7365    9.5399 C.3     1  UNL1        0.1205
     33 C          59.4873   88.6048    8.3607 C.ar    1  UNL1       -0.0023
     34 C          60.5843   89.6233    8.4588 C.ar    1  UNL1       -0.0026
     35 C          60.9092   90.4915    7.2796 C.ar    1  UNL1       -0.0003
     36 C          60.1371   90.3414    6.0023 C.ar    1  UNL1       -0.0000
     37 C          59.0403   89.3230    5.9042 C.ar    1  UNL1       -0.0003
     38 C          58.7153   88.4547    7.0834 C.ar    1  UNL1       -0.0026
     39 C          60.4620   91.2097    4.8231 C.ar    1  UNL1       -0.0000
     40 C          59.4258   92.1432    4.2709 C.ar    1  UNL1       -0.0001
     41 C          59.7506   93.0114    3.0917 C.ar    1  UNL1        0.0039
     42 C          61.1117   92.9463    2.4647 C.ar    1  UNL1        0.0714
     43 C          62.1480   92.0129    3.0168 C.ar    1  UNL1        0.0039
     44 C          61.8231   91.1445    4.1961 C.ar    1  UNL1       -0.0001
     45 C          61.4366   93.8146    1.2854 C.3     1  UNL1        0.4186
     46 F          61.7615   94.6829    0.1062 F       1  UNL1       -0.1659
     47 F          60.3079   94.7326    1.6504 F       1  UNL1       -0.1659
     48 F          62.5652   92.8966    0.9204 F       1  UNL1       -0.1659
@<TRIPOS>UNITY_ATOM_ATTR
30 1
charge -1
@<TRIPOS>BOND
     1    10    11    1
     2    11    12   ar
     3    12    13   ar
     4    13     9    1
     5     9     2    1
     6     2     3   ar
     7     3     4   ar
     8     4     1    1
     9     1    25    1
    10    25    26    2
    11    25    27   am
    12    27    28    1
    13    28    29    1
    14    29    30   ar
    15    29    31   ar
    16    27    32    1
    17    32    33    1
    18    33    34   ar
    19    34    35   ar
    20    35    36   ar
    21    36    39    1
    22    39    40   ar
    23    40    41   ar
    24    41    42   ar
    25    42    45    1
    26    45    46    1
    27    45    47    1
    28    45    48    1
    29    42    43   ar
    30    43    44   ar
    31    36    37   ar
    32    37    38   ar
    33     4     5   ar
    34     5    16    1
    35    16    17    1
    36    17    18    1
    37    18    19   ar
    38    19    20   ar
    39    20    21   ar
    40    21    22    1
    41    21    23   ar
    42    23    24   ar
    43     5     6   ar
    44     6     7   ar
    45     7     8    2
    46    13    14   ar
    47    14    15   ar
    48    15    11   ar
    49     7     2   ar
    50    38    33   ar
    51    24    18   ar
    52    44    39   ar
@<TRIPOS>MOLECULE
*****
 48 52 0 0 0
SMALL
GASTEIGER

@<TRIPOS>ATOM
      1 C          63.8034   90.4265   14.6670 C.3     1  UNL1        0.1934
      2 C          61.9731   90.1889   11.1537 C.ar    1  UNL1        0.0574
      3 C          62.2907   89.9738   12.6038 C.ar    1  UNL1        0.0786
      4 N          63.4857   90.6416   13.2168 N.ar    1  UNL1       -0.2979
      5 C          64.3632   91.5245   12.3798 C.ar    1  UNL1        0.1750
      6 N          64.0456   91.7396   10.9297 N.ar    1  UNL1       -0.1847
      7 C          62.8506   91.0718   10.3166 C.ar    1  UNL1        0.2786
      8 O          62.5330   91.2868    8.8665 O.2     1  UNL1       -0.2654
      9 C          60.7781   89.5211   10.5405 C.3     1  UNL1        0.0622
     10 C          62.8956   85.1834    8.4000 C.3     1  UNL1        0.1537
     11 N          61.9215   86.2637    8.7665 N.ar    1  UNL1       -0.2477
     12 C          62.1994   87.4350    9.6613 C.ar    1  UNL1        0.0927
     13 C          60.9482   88.2574    9.7504 C.ar    1  UNL1        0.0220
     14 C          59.8969   87.5944    8.9106 C.ar    1  UNL1        0.1177
     15 N          60.4984   86.3621    8.3026 N.ar    1  UNL1       -0.1679
     16 S          65.5583   92.1923   12.9930 S.3     1  UNL1       -0.0724
     17 C          66.8398   92.2931   12.2201 C.3     1  UNL1        0.0913
     18 C          67.0017   93.3532   11.1712 C.ar    1  UNL1       -0.0108
     19 C          66.4452   94.7270   11.4012 C.ar    1  UNL1       -0.0011
     20 C          66.6071   95.7870   10.3524 C.ar    1  UNL1        0.0293
     21 C          67.3255   95.4732    9.0735 C.ar    1  UNL1        0.1401
     22 F          67.4873   96.5333    8.0246 F       1  UNL1       -0.2042
     23 C          67.8820   94.0994    8.8435 C.ar    1  UNL1        0.0293
     24 C          67.7201   93.0394    9.8924 C.ar    1  UNL1       -0.0011
     25 C          64.2530   89.0774   15.1442 C.2     1  UNL1        0.2493
     26 O          65.4996   88.4603   14.5826 O.2     1  UNL1       -0.2727
     27 N          63.4560   88.3453   16.1829 N.am    1  UNL1       -0.2685
     28 C          62.2094   88.9624   16.7445 C.3     1  UNL1        0.1355
     29 C          60.8719   88.3501   16.4514 C.2     1  UNL1        0.0705
     30 O          60.6237   86.9045   16.7653 O.co2   1  UNL1       -0.5474
     31 O          59.7824   89.1835   15.8445 O.co2   1  UNL1       -0.5474
     32 C          63.9056   86.9962   16.6601 C.3     1  UNL1        0.1205
     33 C          63.7360   85.7942   15.7791 C.ar    1  UNL1       -0.0023
     34 C          64.8031   85.4337   14.7884 C.ar    1  UNL1       -0.0026
     35 C          64.6334   84.2317   13.9074 C.ar    1  UNL1       -0.0003
     36 C          63.3967   83.3900   14.0170 C.ar    1  UNL1       -0.0000
     37 C          62.3296   83.7504   15.0077 C.ar    1  UNL1       -0.0003
     38 C          62.4992   84.9525   15.8887 C.ar    1  UNL1       -0.0026
     39 C          63.2270   82.1880   13.1360 C.ar    1  UNL1       -0.0000
     40 C          62.8873   80.8575   13.7397 C.ar    1  UNL1       -0.0001
     41 C          62.7176   79.6554   12.8587 C.ar    1  UNL1        0.0039
     42 C          62.8877   79.7838   11.3739 C.ar    1  UNL1        0.0714
     43 C          63.2273   81.1142   10.7702 C.ar    1  UNL1        0.0039
     44 C          63.3970   82.3163   11.6512 C.ar    1  UNL1       -0.0001
     45 C          62.7180   78.5816   10.4929 C.3     1  UNL1        0.4186
     46 F          62.5483   77.3795    9.6120 F       1  UNL1       -0.1659
     47 F          62.6709   79.4721    9.2868 F       1  UNL1       -0.1659
     48 F          62.7650   77.6911   11.6990 F       1  UNL1       -0.1659
@<TRIPOS>UNITY_ATOM_ATTR
30 1
charge -1
@<TRIPOS>BOND
     1    10    11    1
     2    11    12   ar
     3    12    13   ar
     4    13     9    1
     5     9     2    1
     6     2     3   ar
     7     3     4   ar
     8     4     1    1
     9     1    25    1
    10    25    26    2
    11    25    27   am
    12    27    28    1
    13    28    29    1
    14    29    30   ar
    15    29    31   ar
    16    27    32    1
    17    32    33    1
    18    33    34   ar
    19    34    35   ar
    20    35    36   ar
    21    36    39    1
    22    39    40   ar
    23    40    41   ar
    24    41    42   ar
    25    42    45    1
    26    45    46    1
    27    45    47    1
    28    45    48    1
    29    42    43   ar
    30    43    44   ar
    31    36    37   ar
    32    37    38   ar
    33     4     5   ar
    34     5    16    1
    35    16    17    1
    36    17    18    1
    37    18    19   ar
    38    19    20   ar
    39    20    21   ar
    40    21    22    1
    41    21    23   ar
    42    23    24   ar
    43     5     6   ar
    44     6     7   ar
    45     7     8    2
    46    13    14   ar
    47    14    15   ar
    48    15    11   ar
    49     7     2   ar
    50    38    33   ar
    51    24    18   ar
    52    44    39   ar
@<TRIPOS>MOLECULE
*****
 48 52 0 0 0
SMALL
GASTEIGER

@<TRIPOS>ATOM
      1 C          63.4769   87.9174   12.3071 C.3     1  UNL1        0.1934
      2 C          63.6837   85.2475   15.2361 C.ar    1  UNL1        0.0574
      3 C          63.6408   85.8400   13.8587 C.ar    1  UNL1        0.0786
      4 N          63.5199   87.3249   13.6845 N.ar    1  UNL1       -0.2979
      5 C          63.4421   88.2173   14.8876 C.ar    1  UNL1        0.1750
      6 N          63.4850   87.6249   16.2649 N.ar    1  UNL1       -0.1847
      7 C          63.6059   86.1400   16.4392 C.ar    1  UNL1        0.2786
      8 O          63.6489   85.5474   17.8166 O.2     1  UNL1       -0.2654
      9 C          63.8046   83.7625   15.4103 C.3     1  UNL1        0.0622
     10 C          63.1759   80.9947   10.9579 C.3     1  UNL1        0.1537
     11 N          62.9511   81.5650   12.3269 N.ar    1  UNL1       -0.2477
     12 C          63.8463   82.5387   13.0344 C.ar    1  UNL1        0.0927
     13 C          63.2400   82.8373   14.3735 C.ar    1  UNL1        0.0220
     14 C          61.9700   82.0481   14.4936 C.ar    1  UNL1        0.1177
     15 N          61.7914   81.2619   13.2288 N.ar    1  UNL1       -0.1679
     16 S          63.3212   89.7023   14.7133 S.3     1  UNL1       -0.0724
     17 C          64.5093   90.5851   14.9563 C.3     1  UNL1        0.0913
     18 C          65.1817   91.2716   13.8045 C.ar    1  UNL1       -0.0108
     19 C          64.4116   91.5599   12.5500 C.ar    1  UNL1       -0.0011
     20 C          65.0840   92.2464   11.3983 C.ar    1  UNL1        0.0293
     21 C          66.5265   92.6447   11.5010 C.ar    1  UNL1        0.1401
     22 F          67.1989   93.3312   10.3492 F       1  UNL1       -0.2042
     23 C          67.2966   92.3564   12.7555 C.ar    1  UNL1        0.0293
     24 C          66.6242   91.6699   13.9073 C.ar    1  UNL1       -0.0011
     25 C          62.1573   88.1708   11.6405 C.2     1  UNL1        0.2493
     26 O          61.5514   89.5426   11.6737 O.2     1  UNL1       -0.2727
     27 N          61.4435   87.0524   10.9408 N.am    1  UNL1       -0.2685
     28 C          62.0493   85.6805   10.9077 C.3     1  UNL1        0.1355
     29 C          62.7735   85.2099    9.6813 C.2     1  UNL1        0.0705
     30 O          63.7448   84.0706    9.7747 O.co2   1  UNL1       -0.5474
     31 O          62.5263   85.8785    8.3615 O.co2   1  UNL1       -0.5474
     32 C          60.1238   87.3057   10.2742 C.3     1  UNL1        0.1205
     33 C          60.0534   88.1822    9.0590 C.ar    1  UNL1       -0.0023
     34 C          59.4150   87.6710    7.8015 C.ar    1  UNL1       -0.0026
     35 C          59.3447   88.5475    6.5863 C.ar    1  UNL1       -0.0003
     36 C          59.9126   89.9352    6.6285 C.ar    1  UNL1       -0.0000
     37 C          60.5510   90.4464    7.8859 C.ar    1  UNL1       -0.0003
     38 C          60.6214   89.5699    9.1012 C.ar    1  UNL1       -0.0026
     39 C          59.8422   90.8117    5.4133 C.ar    1  UNL1       -0.0000
     40 C          61.0914   91.1346    4.6481 C.ar    1  UNL1       -0.0001
     41 C          61.0210   92.0111    3.4329 C.ar    1  UNL1        0.0039
     42 C          59.7015   92.5647    2.9828 C.ar    1  UNL1        0.0714
     43 C          58.4524   92.2418    3.7480 C.ar    1  UNL1        0.0039
     44 C          58.5228   91.3652    4.9632 C.ar    1  UNL1       -0.0001
     45 C          59.6311   93.4412    1.7675 C.3     1  UNL1        0.4186
     46 F          59.5608   94.3177    0.5524 F       1  UNL1       -0.1659
     47 F          59.2696   92.2507    0.9298 F       1  UNL1       -0.1659
     48 F          59.9927   94.6317    2.6053 F       1  UNL1       -0.1659
@<TRIPOS>UNITY_ATOM_ATTR
30 1
charge -1
@<TRIPOS>BOND
     1    10    11    1
     2    11    12   ar
     3    12    13   ar
     4    13     9    1
     5     9     2    1
     6     2     3   ar
     7     3     4   ar
     8     4     1    1
     9     1    25    1
    10    25    26    2
    11    25    27   am
    12    27    28    1
    13    28    29    1
    14    29    30   ar
    15    29    31   ar
    16    27    32    1
    17    32    33    1
    18    33    34   ar
    19    34    35   ar
    20    35    36   ar
    21    36    39    1
    22    39    40   ar
    23    40    41   ar
    24    41    42   ar
    25    42    45    1
    26    45    46    1
    27    45    47    1
    28    45    48    1
    29    42    43   ar
    30    43    44   ar
    31    36    37   ar
    32    37    38   ar
    33     4     5   ar
    34     5    16    1
    35    16    17    1
    36    17    18    1
    37    18    19   ar
    38    19    20   ar
    39    20    21   ar
    40    21    22    1
    41    21    23   ar
    42    23    24   ar
    43     5     6   ar
    44     6     7   ar
    45     7     8    2
    46    13    14   ar
    47    14    15   ar
    48    15    11   ar
    49     7     2   ar
    50    38    33   ar
    51    24    18   ar
    52    44    39   ar
