@<TRIPOS>MOLECULE
*****
 25 26 0 0 0
SMALL
GASTEIGER

@<TRIPOS>ATOM
      1 C          66.3213   92.7689   11.4647 C.ar    1  UNL1        0.1753
      2 C          65.1338   92.3756   10.6370 C.ar    1  UNL1        0.0403
      3 C          64.0348   91.5551   11.2444 C.ar    1  UNL1        0.0063
      4 C          64.1233   91.1278   12.6795 C.ar    1  UNL1        0.0403
      5 C          65.3107   91.5211   13.5072 C.ar    1  UNL1        0.1753
      6 C          66.4098   92.3416   12.8998 C.ar    1  UNL1        0.2059
      7 C          62.8472   91.1618   10.4166 C.2     1  UNL1        0.0035
      8 C          62.0052   89.9888   10.8227 C.2     1  UNL1        0.0420
      9 C          60.8178   89.5955    9.9950 C.2     1  UNL1        0.1957
     10 O          59.6350   90.5128    9.8968 O.2     1  UNL1       -0.2866
     11 C          60.8130   88.2849    9.2654 C.ar    1  UNL1        0.0420
     12 C          61.9614   87.3333    9.4253 C.ar    1  UNL1        0.0239
     13 C          61.9566   86.0227    8.6957 C.ar    1  UNL1        0.0990
     14 N          60.8034   85.6637    7.8063 N.ar    1  UNL1       -0.2423
     15 C          59.6549   86.6152    7.6464 C.ar    1  UNL1        0.0990
     16 C          59.6597   87.9258    8.3760 C.ar    1  UNL1        0.0239
     17 O          67.4203   93.5894   10.8573 O.3     1  UNL1       -0.4723
     18 C          68.6741   92.3648    8.9394 C.3     1  UNL1        0.0512
     19 C          67.7439   93.4479    9.3995 C.3     1  UNL1        0.2057
     20 O          65.3993   91.0938   14.9424 O.3     1  UNL1       -0.4723
     21 C          64.1640   91.0607   15.7926 C.3     1  UNL1        0.2057
     22 C          63.4388   89.7660   16.0117 C.3     1  UNL1        0.0512
     23 O          67.5973   92.7349   13.7276 O.3     1  UNL1       -0.4695
     24 C          67.4205   93.6410   14.9098 C.3     1  UNL1        0.2058
     25 C          68.4766   93.7013   15.9732 C.3     1  UNL1        0.0512
@<TRIPOS>BOND
     1    18    19    1
     2    19    17    1
     3    17     1    1
     4     1     2   ar
     5     2     3   ar
     6     3     7    1
     7     7     8    2
     8     8     9    1
     9     9    10    2
    10     9    11    1
    11    11    12   ar
    12    12    13   ar
    13    13    14   ar
    14    14    15   ar
    15    15    16   ar
    16     3     4   ar
    17     4     5   ar
    18     5    20    1
    19    20    21    1
    20    21    22    1
    21     5     6   ar
    22     6    23    1
    23    23    24    1
    24    24    25    1
    25     6     1   ar
    26    16    11   ar
@<TRIPOS>MOLECULE
*****
 25 26 0 0 0
SMALL
GASTEIGER

@<TRIPOS>ATOM
      1 C          65.3649   91.5904   13.4779 C.ar    1  UNL1        0.1753
      2 C          64.1850   91.1665   12.6545 C.ar    1  UNL1        0.0403
      3 C          64.0928   91.5698   11.2127 C.ar    1  UNL1        0.0063
      4 C          65.1806   92.3970   10.5943 C.ar    1  UNL1        0.0403
      5 C          66.3605   92.8208   11.4177 C.ar    1  UNL1        0.1753
      6 C          66.4527   92.4176   12.8595 C.ar    1  UNL1        0.2059
      7 C          62.9128   91.1459   10.3893 C.2     1  UNL1        0.0035
      8 C          62.0033   90.0610   10.8850 C.2     1  UNL1        0.0420
      9 C          60.8233   89.6371   10.0616 C.2     1  UNL1        0.1957
     10 O          59.6131   90.5192    9.9754 O.2     1  UNL1       -0.2866
     11 C          60.8535   88.3311    9.3244 C.ar    1  UNL1        0.0420
     12 C          59.7276   87.9631    8.4042 C.ar    1  UNL1        0.0239
     13 C          59.7578   86.6571    7.6670 C.ar    1  UNL1        0.0990
     14 N          60.9139   85.7190    7.8501 N.ar    1  UNL1       -0.2423
     15 C          62.0398   86.0870    8.7704 C.ar    1  UNL1        0.0990
     16 C          62.0097   87.3930    9.5076 C.ar    1  UNL1        0.0239
     17 O          65.4570   91.1871   14.9198 O.3     1  UNL1       -0.4723
     18 C          63.4593   89.9439   16.0213 C.3     1  UNL1        0.0512
     19 C          64.2313   91.2079   15.7842 C.3     1  UNL1        0.2057
     20 O          67.4484   93.6480   10.7993 O.3     1  UNL1       -0.4723
     21 C          67.7883   93.4764    9.3485 C.3     1  UNL1        0.2057
     22 C          68.6885   92.3571    8.9163 C.3     1  UNL1        0.0512
     23 O          67.6327   92.8415   13.6830 O.3     1  UNL1       -0.4695
     24 C          67.4250   93.6401   14.9356 C.3     1  UNL1        0.2058
     25 C          68.4421   93.5860   16.0368 C.3     1  UNL1        0.0512
@<TRIPOS>BOND
     1    18    19    1
     2    19    17    1
     3    17     1    1
     4     1     2   ar
     5     2     3   ar
     6     3     7    1
     7     7     8    2
     8     8     9    1
     9     9    10    2
    10     9    11    1
    11    11    12   ar
    12    12    13   ar
    13    13    14   ar
    14    14    15   ar
    15    15    16   ar
    16     3     4   ar
    17     4     5   ar
    18     5    20    1
    19    20    21    1
    20    21    22    1
    21     5     6   ar
    22     6    23    1
    23    23    24    1
    24    24    25    1
    25     6     1   ar
    26    16    11   ar
@<TRIPOS>MOLECULE
*****
 25 26 0 0 0
SMALL
GASTEIGER

@<TRIPOS>ATOM
      1 C          62.7813   86.7657   11.7889 C.ar    1  UNL1        0.1753
      2 C          63.2760   87.8905   12.6491 C.ar    1  UNL1        0.0403
      3 C          63.9480   87.5948   13.9572 C.ar    1  UNL1        0.0063
      4 C          64.1252   86.1743   14.4051 C.ar    1  UNL1        0.0403
      5 C          63.6304   85.0494   13.5449 C.ar    1  UNL1        0.1753
      6 C          62.9585   85.3451   12.2368 C.ar    1  UNL1        0.2059
      7 C          64.4427   88.7197   14.8174 C.2     1  UNL1        0.0035
      8 C          64.0263   90.1299   14.5206 C.2     1  UNL1        0.0420
      9 C          64.5210   91.2548   15.3807 C.2     1  UNL1        0.1957
     10 O          63.6496   91.8046   16.4709 O.2     1  UNL1       -0.2866
     11 C          65.8872   91.8299   15.1507 C.ar    1  UNL1        0.0420
     12 C          66.5101   92.7200   16.1850 C.ar    1  UNL1        0.0239
     13 C          67.8762   93.2951   15.9550 C.ar    1  UNL1        0.0990
     14 N          68.6195   92.9801   14.6908 N.ar    1  UNL1       -0.2423
     15 C          67.9966   92.0900   13.6565 C.ar    1  UNL1        0.0990
     16 C          66.6305   91.5148   13.8864 C.ar    1  UNL1        0.0239
     17 O          62.1094   87.0614   10.4809 O.3     1  UNL1       -0.4723
     18 C          60.7493   89.0806    9.5738 C.3     1  UNL1        0.0512
     19 C          62.0622   88.4684    9.9631 C.3     1  UNL1        0.2057
     20 O          63.8076   83.6288   13.9928 O.3     1  UNL1       -0.4723
     21 C          62.7254   82.9497   14.7786 C.3     1  UNL1        0.2057
     22 C          61.9590   81.8120   14.1716 C.3     1  UNL1        0.0512
     23 O          62.4637   84.2202   11.3767 O.3     1  UNL1       -0.4695
     24 C          63.3530   83.6386   10.3179 C.3     1  UNL1        0.2058
     25 C          64.1884   82.4303   10.6208 C.3     1  UNL1        0.0512
@<TRIPOS>BOND
     1    18    19    1
     2    19    17    1
     3    17     1    1
     4     1     2   ar
     5     2     3   ar
     6     3     7    1
     7     7     8    2
     8     8     9    1
     9     9    10    2
    10     9    11    1
    11    11    12   ar
    12    12    13   ar
    13    13    14   ar
    14    14    15   ar
    15    15    16   ar
    16     3     4   ar
    17     4     5   ar
    18     5    20    1
    19    20    21    1
    20    21    22    1
    21     5     6   ar
    22     6    23    1
    23    23    24    1
    24    24    25    1
    25     6     1   ar
    26    16    11   ar
@<TRIPOS>MOLECULE
*****
 25 26 0 0 0
SMALL
GASTEIGER

@<TRIPOS>ATOM
      1 C          65.7076   91.8240   13.7293 C.ar    1  UNL1        0.1753
      2 C          65.4209   90.6171   14.5726 C.ar    1  UNL1        0.0403
      3 C          64.3907   89.6207   14.1302 C.ar    1  UNL1        0.0063
      4 C          63.6472   89.8310   12.8445 C.ar    1  UNL1        0.0403
      5 C          63.9340   91.0379   12.0012 C.ar    1  UNL1        0.1753
      6 C          64.9642   92.0344   12.4436 C.ar    1  UNL1        0.2059
      7 C          64.1039   88.4137   14.9736 C.2     1  UNL1        0.0035
      8 C          64.1771   87.0425   14.3700 C.2     1  UNL1        0.0420
      9 C          63.8904   85.8356   15.2133 C.2     1  UNL1        0.1957
     10 O          63.8330   85.9608   16.7070 O.2     1  UNL1       -0.2866
     11 C          63.6611   84.5035   14.5630 C.ar    1  UNL1        0.0420
     12 C          64.5203   84.0733   13.4113 C.ar    1  UNL1        0.0239
     13 C          64.2910   82.7412   12.7609 C.ar    1  UNL1        0.0990
     14 N          63.2024   81.8393   13.2623 N.ar    1  UNL1       -0.2423
     15 C          62.3430   82.2695   14.4141 C.ar    1  UNL1        0.0990
     16 C          62.5723   83.6016   15.0644 C.ar    1  UNL1        0.0239
     17 O          66.7379   92.8205   14.1716 O.3     1  UNL1       -0.4723
     18 C          68.4223   92.3345   16.0890 C.3     1  UNL1        0.0512
     19 C          68.0880   92.3515   14.6269 C.3     1  UNL1        0.2057
     20 O          63.1905   91.2483   10.7155 O.3     1  UNL1       -0.4723
     21 C          61.9194   90.4968   10.4525 C.3     1  UNL1        0.2057
     22 C          61.9725   89.1043    9.8972 C.3     1  UNL1        0.0512
     23 O          65.2510   93.2413   11.6002 O.3     1  UNL1       -0.4695
     24 C          66.1487   93.1244   10.4042 C.3     1  UNL1        0.2058
     25 C          67.4157   92.3264   10.4927 C.3     1  UNL1        0.0512
@<TRIPOS>BOND
     1    18    19    1
     2    19    17    1
     3    17     1    1
     4     1     2   ar
     5     2     3   ar
     6     3     7    1
     7     7     8    2
     8     8     9    1
     9     9    10    2
    10     9    11    1
    11    11    12   ar
    12    12    13   ar
    13    13    14   ar
    14    14    15   ar
    15    15    16   ar
    16     3     4   ar
    17     4     5   ar
    18     5    20    1
    19    20    21    1
    20    21    22    1
    21     5     6   ar
    22     6    23    1
    23    23    24    1
    24    24    25    1
    25     6     1   ar
    26    16    11   ar
@<TRIPOS>MOLECULE
*****
 25 26 0 0 0
SMALL
GASTEIGER

@<TRIPOS>ATOM
      1 C          63.7309   85.0732   13.4990 C.ar    1  UNL1        0.1753
      2 C          64.2306   86.2050   14.3472 C.ar    1  UNL1        0.0403
      3 C          63.9866   87.6234   13.9246 C.ar    1  UNL1        0.0063
      4 C          63.2429   87.9101   12.6540 C.ar    1  UNL1        0.0403
      5 C          62.7432   86.7783   11.8058 C.ar    1  UNL1        0.1753
      6 C          62.9872   85.3599   12.2284 C.ar    1  UNL1        0.2059
      7 C          64.4863   88.7552   14.7729 C.2     1  UNL1        0.0035
      8 C          63.9801   90.1477   14.5394 C.2     1  UNL1        0.0420
      9 C          64.4798   91.2795   15.3875 C.2     1  UNL1        0.1957
     10 O          63.6070   91.8512   16.4653 O.2     1  UNL1       -0.2866
     11 C          65.8522   91.8395   15.1580 C.ar    1  UNL1        0.0420
     12 C          66.5809   91.5395   13.8817 C.ar    1  UNL1        0.0239
     13 C          67.9534   92.0996   13.6522 C.ar    1  UNL1        0.0990
     14 N          68.5972   92.9596   14.6990 N.ar    1  UNL1       -0.2423
     15 C          67.8685   93.2597   15.9754 C.ar    1  UNL1        0.0990
     16 C          66.4960   92.6996   16.2049 C.ar    1  UNL1        0.0239
     17 O          63.9749   83.6548   13.9216 O.3     1  UNL1       -0.4723
     18 C          61.9718   82.0315   14.2414 C.3     1  UNL1        0.0512
     19 C          62.9957   82.9614   14.8217 C.3     1  UNL1        0.2057
     20 O          61.9994   87.0650   10.5350 O.3     1  UNL1       -0.4723
     21 C          61.1027   88.2640   10.4450 C.3     1  UNL1        0.2057
     22 C          60.6293   88.7477    9.1063 C.3     1  UNL1        0.0512
     23 O          62.4874   84.2281   11.3801 O.3     1  UNL1       -0.4695
     24 C          63.3312   83.7038   10.2562 C.3     1  UNL1        0.2058
     25 C          64.1962   82.4968   10.4677 C.3     1  UNL1        0.0512
@<TRIPOS>BOND
     1    18    19    1
     2    19    17    1
     3    17     1    1
     4     1     2   ar
     5     2     3   ar
     6     3     7    1
     7     7     8    2
     8     8     9    1
     9     9    10    2
    10     9    11    1
    11    11    12   ar
    12    12    13   ar
    13    13    14   ar
    14    14    15   ar
    15    15    16   ar
    16     3     4   ar
    17     4     5   ar
    18     5    20    1
    19    20    21    1
    20    21    22    1
    21     5     6   ar
    22     6    23    1
    23    23    24    1
    24    24    25    1
    25     6     1   ar
    26    16    11   ar
@<TRIPOS>MOLECULE
*****
 25 26 0 0 0
SMALL
GASTEIGER

@<TRIPOS>ATOM
      1 C          63.8848   91.0051   12.0729 C.ar    1  UNL1        0.1753
      2 C          63.5775   89.7870   12.8925 C.ar    1  UNL1        0.0403
      3 C          64.3326   89.5273   14.1622 C.ar    1  UNL1        0.0063
      4 C          65.3951   90.4856   14.6125 C.ar    1  UNL1        0.0403
      5 C          65.7024   91.7037   13.7929 C.ar    1  UNL1        0.1753
      6 C          64.9473   91.9635   12.5231 C.ar    1  UNL1        0.2059
      7 C          64.0253   88.3091   14.9818 C.2     1  UNL1        0.0035
      8 C          64.2630   86.9421   14.4118 C.2     1  UNL1        0.0420
      9 C          63.9557   85.7239   15.2313 C.2     1  UNL1        0.1957
     10 O          63.9323   85.8135   16.7285 O.2     1  UNL1       -0.2866
     11 C          63.6718   84.4162   14.5537 C.ar    1  UNL1        0.0420
     12 C          64.5012   83.9834   13.3812 C.ar    1  UNL1        0.0239
     13 C          64.2173   82.6757   12.7036 C.ar    1  UNL1        0.0990
     14 N          63.1040   81.8007   13.1984 N.ar    1  UNL1       -0.2423
     15 C          62.2745   82.2334   14.3710 C.ar    1  UNL1        0.0990
     16 C          62.5584   83.5412   15.0486 C.ar    1  UNL1        0.0239
     17 O          63.1297   91.2649   10.8032 O.3     1  UNL1       -0.4723
     18 C          61.7674   89.2894    9.8075 C.3     1  UNL1        0.0512
     19 C          61.8144   90.5859   10.5604 C.3     1  UNL1        0.2057
     20 O          66.7649   92.6621   14.2431 O.3     1  UNL1       -0.4723
     21 C          67.2709   92.6122   15.6543 C.3     1  UNL1        0.2057
     22 C          68.7444   92.6851   15.9257 C.3     1  UNL1        0.0512
     23 O          65.2546   93.1817   11.7036 O.3     1  UNL1       -0.4695
     24 C          66.0759   93.0576   10.4545 C.3     1  UNL1        0.2058
     25 C          67.4146   92.3826   10.5011 C.3     1  UNL1        0.0512
@<TRIPOS>BOND
     1    18    19    1
     2    19    17    1
     3    17     1    1
     4     1     2   ar
     5     2     3   ar
     6     3     7    1
     7     7     8    2
     8     8     9    1
     9     9    10    2
    10     9    11    1
    11    11    12   ar
    12    12    13   ar
    13    13    14   ar
    14    14    15   ar
    15    15    16   ar
    16     3     4   ar
    17     4     5   ar
    18     5    20    1
    19    20    21    1
    20    21    22    1
    21     5     6   ar
    22     6    23    1
    23    23    24    1
    24    24    25    1
    25     6     1   ar
    26    16    11   ar
@<TRIPOS>MOLECULE
*****
 25 26 0 0 0
SMALL
GASTEIGER

@<TRIPOS>ATOM
      1 C          62.9379   87.8691   12.1793 C.ar    1  UNL1        0.1753
      2 C          63.3977   89.2874   12.3440 C.ar    1  UNL1        0.0403
      3 C          64.1919   89.6826   13.5536 C.ar    1  UNL1        0.0063
      4 C          64.5262   88.6597   14.5984 C.ar    1  UNL1        0.0403
      5 C          64.0663   87.2415   14.4337 C.ar    1  UNL1        0.1753
      6 C          63.2722   86.8462   13.2241 C.ar    1  UNL1        0.2059
      7 C          64.6517   91.1009   13.7182 C.2     1  UNL1        0.0035
      8 C          65.4863   91.7473   12.6525 C.2     1  UNL1        0.0420
      9 C          65.9462   93.1655   12.8172 C.2     1  UNL1        0.1957
     10 O          65.9878   93.7868   14.1818 O.2     1  UNL1       -0.2866
     11 C          66.3644   93.9624   11.6172 C.ar    1  UNL1        0.0420
     12 C          66.9252   93.2662   10.4128 C.ar    1  UNL1        0.0239
     13 C          67.3435   94.0631    9.2128 C.ar    1  UNL1        0.0990
     14 N          67.2008   95.5563    9.2172 N.ar    1  UNL1       -0.2423
     15 C          66.6400   96.2526   10.4216 C.ar    1  UNL1        0.0990
     16 C          66.2217   95.4557   11.6216 C.ar    1  UNL1        0.0239
     17 O          62.1437   87.4739   10.9697 O.3     1  UNL1       -0.4723
     18 C          60.7775   89.3330    9.7751 C.3     1  UNL1        0.0512
     19 C          61.9798   88.4379    9.8322 C.3     1  UNL1        0.2057
     20 O          64.4006   86.2185   15.4786 O.3     1  UNL1       -0.4723
     21 C          63.3727   85.8229   16.4969 C.3     1  UNL1        0.2057
     22 C          62.8108   86.8508   17.4339 C.3     1  UNL1        0.0512
     23 O          62.8123   85.4279   13.0595 O.3     1  UNL1       -0.4695
     24 C          63.7617   84.3866   12.5453 C.3     1  UNL1        0.2058
     25 C          63.3250   83.4412   11.4657 C.3     1  UNL1        0.0512
@<TRIPOS>BOND
     1    18    19    1
     2    19    17    1
     3    17     1    1
     4     1     2   ar
     5     2     3   ar
     6     3     7    1
     7     7     8    2
     8     8     9    1
     9     9    10    2
    10     9    11    1
    11    11    12   ar
    12    12    13   ar
    13    13    14   ar
    14    14    15   ar
    15    15    16   ar
    16     3     4   ar
    17     4     5   ar
    18     5    20    1
    19    20    21    1
    20    21    22    1
    21     5     6   ar
    22     6    23    1
    23    23    24    1
    24    24    25    1
    25     6     1   ar
    26    16    11   ar
@<TRIPOS>MOLECULE
*****
 25 26 0 0 0
SMALL
GASTEIGER

@<TRIPOS>ATOM
      1 C          66.4019   92.9863   14.0362 C.ar    1  UNL1        0.1753
      2 C          65.7532   91.9739   14.9329 C.ar    1  UNL1        0.0403
      3 C          64.7606   91.0002   14.3701 C.ar    1  UNL1        0.0063
      4 C          64.4167   91.0390   12.9106 C.ar    1  UNL1        0.0403
      5 C          65.0653   92.0515   12.0139 C.ar    1  UNL1        0.1753
      6 C          66.0580   93.0251   12.5767 C.ar    1  UNL1        0.2059
      7 C          64.1119   89.9878   15.2669 C.2     1  UNL1        0.0035
      8 C          64.2809   88.5232   14.9902 C.2     1  UNL1        0.0420
      9 C          63.6323   87.5108   15.8869 C.2     1  UNL1        0.1957
     10 O          62.9017   87.9582   17.1182 O.2     1  UNL1       -0.2866
     11 C          63.7142   86.0508   15.5524 C.ar    1  UNL1        0.0420
     12 C          62.6604   85.1069   16.0507 C.ar    1  UNL1        0.0239
     13 C          62.7423   83.6470   15.7162 C.ar    1  UNL1        0.0990
     14 N          63.8781   83.1310   14.8834 N.ar    1  UNL1       -0.2423
     15 C          64.9320   84.0749   14.3850 C.ar    1  UNL1        0.0990
     16 C          64.8501   85.5348   14.7195 C.ar    1  UNL1        0.0239
     17 O          67.3946   93.9599   14.5990 O.3     1  UNL1       -0.4723
     18 C          68.5608   92.1636   16.0696 C.3     1  UNL1        0.0512
     19 C          68.1966   93.5959   15.8131 C.3     1  UNL1        0.2057
     20 O          64.7214   92.0903   10.5544 O.3     1  UNL1       -0.4723
     21 C          63.3450   91.7069   10.0977 C.3     1  UNL1        0.2057
     22 C          62.9043   90.2746   10.1652 C.3     1  UNL1        0.0512
     23 O          66.7066   94.0376   11.6799 O.3     1  UNL1       -0.4695
     24 C          66.1217   95.4132   11.5553 C.3     1  UNL1        0.2058
     25 C          65.4146   95.8162   10.2954 C.3     1  UNL1        0.0512
@<TRIPOS>BOND
     1    18    19    1
     2    19    17    1
     3    17     1    1
     4     1     2   ar
     5     2     3   ar
     6     3     7    1
     7     7     8    2
     8     8     9    1
     9     9    10    2
    10     9    11    1
    11    11    12   ar
    12    12    13   ar
    13    13    14   ar
    14    14    15   ar
    15    15    16   ar
    16     3     4   ar
    17     4     5   ar
    18     5    20    1
    19    20    21    1
    20    21    22    1
    21     5     6   ar
    22     6    23    1
    23    23    24    1
    24    24    25    1
    25     6     1   ar
    26    16    11   ar
@<TRIPOS>MOLECULE
*****
 25 26 0 0 0
SMALL
GASTEIGER

@<TRIPOS>ATOM
      1 C          62.7280   84.3228   12.2767 C.ar    1  UNL1        0.1753
      2 C          62.6478   85.6611   11.6040 C.ar    1  UNL1        0.0403
      3 C          63.0502   86.8998   12.3481 C.ar    1  UNL1        0.0063
      4 C          63.5327   86.8003   13.7648 C.ar    1  UNL1        0.0403
      5 C          63.6129   85.4620   14.4375 C.ar    1  UNL1        0.1753
      6 C          63.2106   84.2232   13.6934 C.ar    1  UNL1        0.2059
      7 C          62.9700   88.2381   11.6754 C.2     1  UNL1        0.0035
      8 C          63.4461   89.4672   12.3914 C.2     1  UNL1        0.0420
      9 C          63.3659   90.8055   11.7187 C.2     1  UNL1        0.1957
     10 O          62.1610   91.1622   10.8996 O.2     1  UNL1       -0.2866
     11 C          64.4906   91.7871   11.8652 C.ar    1  UNL1        0.0420
     12 C          64.9369   92.5979   10.6848 C.ar    1  UNL1        0.0239
     13 C          66.0617   93.5795   10.8312 C.ar    1  UNL1        0.0990
     14 N          66.7401   93.7503   12.1580 N.ar    1  UNL1       -0.2423
     15 C          66.2938   92.9395   13.3385 C.ar    1  UNL1        0.0990
     16 C          65.1691   91.9579   13.1921 C.ar    1  UNL1        0.0239
     17 O          62.3256   83.0841   11.5326 O.3     1  UNL1       -0.4723
     18 C          64.5513   82.7483   10.2351 C.3     1  UNL1        0.0512
     19 C          63.3757   82.1736   10.9685 C.3     1  UNL1        0.2057
     20 O          64.0955   85.3624   15.8543 O.3     1  UNL1       -0.4723
     21 C          63.1521   85.6324   16.9887 C.3     1  UNL1        0.2057
     22 C          62.8737   87.0441   17.4128 C.3     1  UNL1        0.0512
     23 O          63.2908   82.8849   14.3662 O.3     1  UNL1       -0.4695
     24 C          62.0384   82.1041   14.6344 C.3     1  UNL1        0.2058
     25 C          61.8506   80.7514   14.0139 C.3     1  UNL1        0.0512
@<TRIPOS>BOND
     1    18    19    1
     2    19    17    1
     3    17     1    1
     4     1     2   ar
     5     2     3   ar
     6     3     7    1
     7     7     8    2
     8     8     9    1
     9     9    10    2
    10     9    11    1
    11    11    12   ar
    12    12    13   ar
    13    13    14   ar
    14    14    15   ar
    15    15    16   ar
    16     3     4   ar
    17     4     5   ar
    18     5    20    1
    19    20    21    1
    20    21    22    1
    21     5     6   ar
    22     6    23    1
    23    23    24    1
    24    24    25    1
    25     6     1   ar
    26    16    11   ar
