@<TRIPOS>MOLECULE
*****
 27 29 0 0 0
SMALL
GASTEIGER

@<TRIPOS>ATOM
      1 C          63.0547   84.8137   14.5696 C.2     1  UNL1        0.2252
      2 O          62.2191   85.2295   15.7438 O.2     1  UNL1       -0.2750
      3 N          64.1668   85.6985   14.0896 N.am    1  UNL1       -0.3004
      4 H          64.7153   85.4256   13.3189 H       1  UNL1        0.1497
      5 C          62.7782   83.5130   13.8753 C.3     1  UNL1        0.1154
      6 C          64.2108   82.1620   13.4855 C.3     1  UNL1        0.0335
      7 C          63.5131   83.1647   12.6150 C.3     1  UNL1        0.1377
      8 C          62.6618   84.2402   12.0080 C.3     1  UNL1        0.0613
      9 C          63.0164   84.3470   10.5544 C.3     1  UNL1        0.1290
     10 C          63.4747   84.3386    9.1261 C.3     1  UNL1        0.0305
     11 C          62.8657   85.2882    8.1375 C.3     1  UNL1        0.0025
     12 C          61.7984   86.2461    8.5771 C.3     1  UNL1        0.0002
     13 C          61.3401   86.2545   10.0053 C.3     1  UNL1        0.0025
     14 C          61.9491   85.3050   10.9939 C.3     1  UNL1        0.0305
     15 O          64.0869   83.3375   10.2630 O.3     1  UNL1       -0.2256
     16 O          64.3939   82.6067   11.5366 O.3     1  UNL1       -0.2251
     17 C          64.4433   86.9991   14.7839 C.3     1  UNL1        0.1163
     18 C          64.1813   88.2965   14.0781 C.ar    1  UNL1       -0.0026
     19 C          64.7118   89.5796   14.6458 C.ar    1  UNL1       -0.0026
     20 C          64.4499   90.8769   13.9400 C.ar    1  UNL1       -0.0003
     21 C          63.6574   90.8913   12.6665 C.ar    1  UNL1        0.0038
     22 C          63.1269   89.6083   12.0989 C.ar    1  UNL1        0.0712
     23 C          63.3888   88.3108   12.8046 C.ar    1  UNL1        0.0012
     24 C          62.3344   89.6226   10.8254 C.3     1  UNL1        0.4186
     25 F          61.5419   89.6369    9.5519 F       1  UNL1       -0.1659
     26 F          63.5075   90.2146   10.1020 F       1  UNL1       -0.1659
     27 F          61.1612   89.0306   11.5487 F       1  UNL1       -0.1659
@<TRIPOS>BOND
     1     6     7    1
     2     7     5    1
     3     5     1    1
     4     1     2    2
     5     1     3   am
     6     3    17    1
     7    17    18    1
     8    18    19   ar
     9    19    20   ar
    10    20    21   ar
    11    21    22   ar
    12    22    24    1
    13    24    25    1
    14    24    26    1
    15    24    27    1
    16    22    23   ar
    17     7     8    1
    18     8     9    1
    19     9    10    1
    20    10    11    1
    21    11    12    1
    22    12    13    1
    23    13    14    1
    24     9    15    1
    25    15    16    1
    26    16     7    1
    27    23    18   ar
    28    14     9    1
    29     3     4    1
@<TRIPOS>MOLECULE
*****
 27 29 0 0 0
SMALL
GASTEIGER

@<TRIPOS>ATOM
      1 C          64.2056   87.5558   14.2789 C.2     1  UNL1        0.2252
      2 O          64.4959   88.8969   14.8849 O.2     1  UNL1       -0.2750
      3 N          63.4939   87.4662   12.9615 N.am    1  UNL1       -0.3004
      4 H          63.3034   86.5860   12.5638 H       1  UNL1        0.1497
      5 C          64.6271   86.3042   14.9904 C.3     1  UNL1        0.1154
      6 C          63.4189   86.0201   16.5681 C.3     1  UNL1        0.0335
      7 C          63.6153   85.2415   15.3012 C.3     1  UNL1        0.1377
      8 C          64.0232   84.6850   13.9693 C.3     1  UNL1        0.0613
      9 C          63.2224   83.4409   13.7218 C.3     1  UNL1        0.1290
     10 C          62.3540   82.2227   13.6137 C.3     1  UNL1        0.0305
     11 C          62.4407   81.3451   12.4003 C.3     1  UNL1        0.0025
     12 C          63.3959   81.6858   11.2951 C.3     1  UNL1        0.0002
     13 C          64.2643   82.9040   11.4032 C.3     1  UNL1        0.0025
     14 C          64.1775   83.7816   12.6166 C.3     1  UNL1        0.0305
     15 O          62.3196   83.2286   14.9008 O.3     1  UNL1       -0.2256
     16 O          62.5624   84.3414   15.8769 O.3     1  UNL1       -0.2251
     17 C          63.0725   88.7178   12.2502 C.3     1  UNL1        0.1163
     18 C          62.1129   88.6397   11.0999 C.ar    1  UNL1       -0.0026
     19 C          61.1439   89.7581   10.8543 C.ar    1  UNL1       -0.0026
     20 C          60.1844   89.6800    9.7040 C.ar    1  UNL1       -0.0003
     21 C          60.1939   88.4837    8.7993 C.ar    1  UNL1        0.0038
     22 C          61.1629   87.3654    9.0448 C.ar    1  UNL1        0.0712
     23 C          62.1225   87.4434   10.1951 C.ar    1  UNL1        0.0012
     24 C          61.1724   86.1690    8.1401 C.3     1  UNL1        0.4186
     25 F          61.1819   84.9726    7.2353 F       1  UNL1       -0.1659
     26 F          59.6854   86.2804    7.9772 F       1  UNL1       -0.1659
     27 F          62.6593   86.0576    8.3029 F       1  UNL1       -0.1659
@<TRIPOS>BOND
     1     6     7    1
     2     7     5    1
     3     5     1    1
     4     1     2    2
     5     1     3   am
     6     3    17    1
     7    17    18    1
     8    18    19   ar
     9    19    20   ar
    10    20    21   ar
    11    21    22   ar
    12    22    24    1
    13    24    25    1
    14    24    26    1
    15    24    27    1
    16    22    23   ar
    17     7     8    1
    18     8     9    1
    19     9    10    1
    20    10    11    1
    21    11    12    1
    22    12    13    1
    23    13    14    1
    24     9    15    1
    25    15    16    1
    26    16     7    1
    27    23    18   ar
    28    14     9    1
    29     3     4    1
@<TRIPOS>MOLECULE
*****
 27 29 0 0 0
SMALL
GASTEIGER

@<TRIPOS>ATOM
      1 C          64.0488   87.3546   14.2988 C.2     1  UNL1        0.2252
      2 O          63.4930   87.3632   12.9058 O.2     1  UNL1       -0.2750
      3 N          64.1331   88.6320   15.0807 N.am    1  UNL1       -0.3004
      4 H          64.4979   88.6264   15.9951 H       1  UNL1        0.1497
      5 C          64.5205   86.0686   14.9103 C.3     1  UNL1        0.1154
      6 C          63.3064   85.5816   16.4330 C.3     1  UNL1        0.0335
      7 C          63.5594   84.9335   15.1041 C.3     1  UNL1        0.1377
      8 C          64.0132   84.5226   13.7347 C.3     1  UNL1        0.0613
      9 C          63.2796   83.2690   13.3599 C.3     1  UNL1        0.1290
     10 C          62.4752   82.0249   13.1249 C.3     1  UNL1        0.0305
     11 C          62.6230   81.2682   11.8383 C.3     1  UNL1        0.0025
     12 C          63.5750   81.7555   10.7866 C.3     1  UNL1        0.0002
     13 C          64.3793   82.9996   11.0215 C.3     1  UNL1        0.0025
     14 C          64.2316   83.7564   12.3081 C.3     1  UNL1        0.0305
     15 O          62.3724   82.9051   14.4977 O.3     1  UNL1       -0.2256
     16 O          62.5453   83.9338   15.5757 O.3     1  UNL1       -0.2251
     17 C          63.6614   89.9180   14.4693 C.3     1  UNL1        0.1163
     18 C          64.6579   90.9499   14.0311 C.ar    1  UNL1       -0.0026
     19 C          64.5055   91.6215   12.6985 C.ar    1  UNL1       -0.0026
     20 C          65.5020   92.6535   12.2603 C.ar    1  UNL1       -0.0003
     21 C          66.6509   93.0139   13.1547 C.ar    1  UNL1        0.0038
     22 C          66.8034   92.3423   14.4872 C.ar    1  UNL1        0.0712
     23 C          65.8069   91.3103   14.9255 C.ar    1  UNL1        0.0012
     24 C          67.9524   92.7027   15.3817 C.3     1  UNL1        0.4186
     25 F          69.1013   93.0631   16.2761 F       1  UNL1       -0.1659
     26 F          66.9885   93.0882   16.4645 F       1  UNL1       -0.1659
     27 F          68.9162   92.3174   14.2989 F       1  UNL1       -0.1659
@<TRIPOS>BOND
     1     6     7    1
     2     7     5    1
     3     5     1    1
     4     1     2    2
     5     1     3   am
     6     3    17    1
     7    17    18    1
     8    18    19   ar
     9    19    20   ar
    10    20    21   ar
    11    21    22   ar
    12    22    24    1
    13    24    25    1
    14    24    26    1
    15    24    27    1
    16    22    23   ar
    17     7     8    1
    18     8     9    1
    19     9    10    1
    20    10    11    1
    21    11    12    1
    22    12    13    1
    23    13    14    1
    24     9    15    1
    25    15    16    1
    26    16     7    1
    27    23    18   ar
    28    14     9    1
    29     3     4    1
@<TRIPOS>MOLECULE
*****
 27 29 0 0 0
SMALL
GASTEIGER

@<TRIPOS>ATOM
      1 C          64.1144   87.5067   14.2342 C.2     1  UNL1        0.2252
      2 O          63.4224   87.4188   12.9064 O.2     1  UNL1       -0.2750
      3 N          64.3287   88.8429   14.8814 N.am    1  UNL1       -0.3004
      4 H          64.7829   88.9006   15.7529 H       1  UNL1        0.1497
      5 C          64.5923   86.2583   14.9151 C.3     1  UNL1        0.1154
      6 C          63.4488   85.9446   16.5349 C.3     1  UNL1        0.0335
      7 C          63.6171   85.1721   15.2601 C.3     1  UNL1        0.1377
      8 C          63.9893   84.6268   13.9132 C.3     1  UNL1        0.0613
      9 C          63.2089   83.3649   13.6923 C.3     1  UNL1        0.1290
     10 C          62.3654   82.1271   13.6131 C.3     1  UNL1        0.0305
     11 C          62.4285   81.2532   12.3956 C.3     1  UNL1        0.0025
     12 C          63.3350   81.6171   11.2573 C.3     1  UNL1        0.0002
     13 C          64.1784   82.8549   11.3365 C.3     1  UNL1        0.0025
     14 C          64.1154   83.7288   12.5540 C.3     1  UNL1        0.0305
     15 O          62.3545   83.1304   14.9027 O.3     1  UNL1       -0.2256
     16 O          62.6067   84.2473   15.8717 O.3     1  UNL1       -0.2251
     17 C          63.8509   90.0911   14.2005 C.3     1  UNL1        0.1163
     18 C          64.7824   91.2538   14.0261 C.ar    1  UNL1       -0.0026
     19 C          65.5686   91.7670   15.1959 C.ar    1  UNL1       -0.0026
     20 C          66.5002   92.9297   15.0214 C.ar    1  UNL1       -0.0003
     21 C          66.6455   93.5791   13.6772 C.ar    1  UNL1        0.0038
     22 C          65.8593   93.0660   12.5074 C.ar    1  UNL1        0.0712
     23 C          64.9277   91.9033   12.6818 C.ar    1  UNL1        0.0012
     24 C          66.0046   93.7154   11.1631 C.3     1  UNL1        0.4186
     25 F          66.1498   94.3649    9.8189 F       1  UNL1       -0.1659
     26 F          66.0017   95.0662   11.8154 F       1  UNL1       -0.1659
     27 F          66.0074   92.3648   10.5108 F       1  UNL1       -0.1659
@<TRIPOS>BOND
     1     6     7    1
     2     7     5    1
     3     5     1    1
     4     1     2    2
     5     1     3   am
     6     3    17    1
     7    17    18    1
     8    18    19   ar
     9    19    20   ar
    10    20    21   ar
    11    21    22   ar
    12    22    24    1
    13    24    25    1
    14    24    26    1
    15    24    27    1
    16    22    23   ar
    17     7     8    1
    18     8     9    1
    19     9    10    1
    20    10    11    1
    21    11    12    1
    22    12    13    1
    23    13    14    1
    24     9    15    1
    25    15    16    1
    26    16     7    1
    27    23    18   ar
    28    14     9    1
    29     3     4    1
@<TRIPOS>MOLECULE
*****
 27 29 0 0 0
SMALL
GASTEIGER

@<TRIPOS>ATOM
      1 C          63.3717   83.5744   14.6535 C.2     1  UNL1        0.2252
      2 O          64.2168   82.8716   15.6741 O.2     1  UNL1       -0.2750
      3 N          63.2512   85.0694   14.6804 N.am    1  UNL1       -0.3004
      4 H          62.6965   85.5306   14.0104 H       1  UNL1        0.1497
      5 C          62.6472   82.7823   13.6057 C.3     1  UNL1        0.1154
      6 C          63.7875   81.2850   12.9076 C.3     1  UNL1        0.0335
      7 C          63.2856   82.5461   12.2691 C.3     1  UNL1        0.1377
      8 C          62.6501   83.8565   11.9101 C.3     1  UNL1        0.0613
      9 C          63.0008   84.1667   10.4849 C.3     1  UNL1        0.1290
     10 C          63.4312   84.3416    9.0587 C.3     1  UNL1        0.0305
     11 C          63.0046   85.5571    8.2903 C.3     1  UNL1        0.0025
     12 C          62.1476   86.5977    8.9480 C.3     1  UNL1        0.0002
     13 C          61.7171   86.4228   10.3742 C.3     1  UNL1        0.0025
     14 C          62.1437   85.2073   11.1427 C.3     1  UNL1        0.0305
     15 O          63.8529   83.0479    9.9632 O.3     1  UNL1       -0.2256
     16 O          64.0290   82.0463   11.0659 O.3     1  UNL1       -0.2251
     17 C          63.9757   85.8614   15.7281 C.3     1  UNL1        0.1163
     18 C          63.8312   87.3537   15.7735 C.ar    1  UNL1       -0.0026
     19 C          63.1640   88.0073   16.9473 C.ar    1  UNL1       -0.0026
     20 C          63.0195   89.4996   16.9927 C.ar    1  UNL1       -0.0003
     21 C          63.5423   90.3384   15.8644 C.ar    1  UNL1        0.0038
     22 C          64.2095   89.6849   14.6907 C.ar    1  UNL1        0.0712
     23 C          64.3540   88.1925   14.6452 C.ar    1  UNL1        0.0012
     24 C          64.7322   90.5237   13.5624 C.3     1  UNL1        0.4186
     25 F          65.2550   91.3625   12.4341 F       1  UNL1       -0.1659
     26 F          65.7364   91.1435   14.4884 F       1  UNL1       -0.1659
     27 F          63.7281   89.9040   12.6363 F       1  UNL1       -0.1659
@<TRIPOS>BOND
     1     6     7    1
     2     7     5    1
     3     5     1    1
     4     1     2    2
     5     1     3   am
     6     3    17    1
     7    17    18    1
     8    18    19   ar
     9    19    20   ar
    10    20    21   ar
    11    21    22   ar
    12    22    24    1
    13    24    25    1
    14    24    26    1
    15    24    27    1
    16    22    23   ar
    17     7     8    1
    18     8     9    1
    19     9    10    1
    20    10    11    1
    21    11    12    1
    22    12    13    1
    23    13    14    1
    24     9    15    1
    25    15    16    1
    26    16     7    1
    27    23    18   ar
    28    14     9    1
    29     3     4    1
@<TRIPOS>MOLECULE
*****
 27 29 0 0 0
SMALL
GASTEIGER

@<TRIPOS>ATOM
      1 C          63.7611   90.3161   12.9774 C.2     1  UNL1        0.2252
      2 O          64.2588   91.3160   11.9763 O.2     1  UNL1       -0.2750
      3 N          62.4457   89.6286   12.7606 N.am    1  UNL1       -0.3004
      4 H          62.1190   88.9723   13.4177 H       1  UNL1        0.1497
      5 C          64.5789   90.0037   14.1956 C.3     1  UNL1        0.1154
      6 C          63.7667   90.8385   15.8306 C.3     1  UNL1        0.0335
      7 C          63.9235   89.4084   15.4063 C.3     1  UNL1        0.1377
      8 C          64.2172   88.1026   14.7290 C.3     1  UNL1        0.0613
      9 C          63.7105   86.9992   15.6098 C.3     1  UNL1        0.1290
     10 C          63.1572   86.0079   16.5901 C.3     1  UNL1        0.0305
     11 C          63.2424   84.5387   16.3001 C.3     1  UNL1        0.0025
     12 C          63.8811   84.0608   15.0298 C.3     1  UNL1        0.0002
     13 C          64.4344   85.0521   14.0495 C.3     1  UNL1        0.0025
     14 C          64.3491   86.5213   14.3395 C.3     1  UNL1        0.0305
     15 O          63.1037   87.6230   16.8315 O.3     1  UNL1       -0.2256
     16 O          63.2352   89.1120   16.7058 O.3     1  UNL1       -0.2251
     17 C          61.6280   89.9410   11.5425 C.3     1  UNL1        0.1163
     18 C          61.3529   88.8700   10.5289 C.ar    1  UNL1       -0.0026
     19 C          60.2387   89.0422    9.5395 C.ar    1  UNL1       -0.0026
     20 C          59.9636   87.9712    8.5259 C.ar    1  UNL1       -0.0003
     21 C          60.8027   86.7281    8.5018 C.ar    1  UNL1        0.0038
     22 C          61.9168   86.5559    9.4912 C.ar    1  UNL1        0.0712
     23 C          62.1920   87.6269   10.5048 C.ar    1  UNL1        0.0012
     24 C          62.7559   85.3128    9.4670 C.3     1  UNL1        0.4186
     25 F          63.5950   84.0697    9.4429 F       1  UNL1       -0.1659
     26 F          63.2787   85.6920    8.1132 F       1  UNL1       -0.1659
     27 F          62.2332   84.9336   10.8209 F       1  UNL1       -0.1659
@<TRIPOS>BOND
     1     6     7    1
     2     7     5    1
     3     5     1    1
     4     1     2    2
     5     1     3   am
     6     3    17    1
     7    17    18    1
     8    18    19   ar
     9    19    20   ar
    10    20    21   ar
    11    21    22   ar
    12    22    24    1
    13    24    25    1
    14    24    26    1
    15    24    27    1
    16    22    23   ar
    17     7     8    1
    18     8     9    1
    19     9    10    1
    20    10    11    1
    21    11    12    1
    22    12    13    1
    23    13    14    1
    24     9    15    1
    25    15    16    1
    26    16     7    1
    27    23    18   ar
    28    14     9    1
    29     3     4    1
@<TRIPOS>MOLECULE
*****
 27 29 0 0 0
SMALL
GASTEIGER

@<TRIPOS>ATOM
      1 C          61.2297   88.4855   11.4323 C.2     1  UNL1        0.2252
      2 O          59.8281   87.9706   11.5735 O.2     1  UNL1       -0.2750
      3 N          62.2847   87.6256   10.8016 N.am    1  UNL1       -0.3004
      4 H          63.2047   87.9636   10.7089 H       1  UNL1        0.1497
      5 C          61.5766   89.8604   11.9218 C.3     1  UNL1        0.1154
      6 C          61.4682   90.5493   10.0394 C.3     1  UNL1        0.0335
      7 C          62.4942   90.7332   11.1180 C.3     1  UNL1        0.1377
      8 C          63.3283   90.7348   12.3647 C.3     1  UNL1        0.0613
      9 C          64.5471   91.5702   12.1060 C.3     1  UNL1        0.1290
     10 C          65.7088   92.4291   11.7028 C.3     1  UNL1        0.0305
     11 C          66.8143   92.7018   12.6792 C.3     1  UNL1        0.0025
     12 C          66.7582   92.1156   14.0588 C.3     1  UNL1        0.0002
     13 C          65.5965   91.2566   14.4619 C.3     1  UNL1        0.0025
     14 C          64.4909   90.9839   13.4855 C.3     1  UNL1        0.0305
     15 O          64.4662   92.0849   10.6994 O.3     1  UNL1       -0.2256
     16 O          63.1974   91.5677   10.0888 O.3     1  UNL1       -0.2251
     17 C          61.9378   86.2508   10.3121 C.3     1  UNL1        0.1163
     18 C          62.7631   85.0728   10.7378 C.ar    1  UNL1       -0.0026
     19 C          63.3413   84.1501    9.7061 C.ar    1  UNL1       -0.0026
     20 C          64.1665   82.9721   10.1317 C.ar    1  UNL1       -0.0003
     21 C          64.4136   82.7167   11.5890 C.ar    1  UNL1        0.0038
     22 C          63.8354   83.6394   12.6207 C.ar    1  UNL1        0.0712
     23 C          63.0101   84.8175   12.1951 C.ar    1  UNL1        0.0012
     24 C          64.0825   83.3840   14.0780 C.3     1  UNL1        0.4186
     25 F          64.3295   83.1287   15.5353 F       1  UNL1       -0.1659
     26 F          62.8387   82.5480   14.1423 F       1  UNL1       -0.1659
     27 F          65.3262   84.2200   14.0137 F       1  UNL1       -0.1659
@<TRIPOS>BOND
     1     6     7    1
     2     7     5    1
     3     5     1    1
     4     1     2    2
     5     1     3   am
     6     3    17    1
     7    17    18    1
     8    18    19   ar
     9    19    20   ar
    10    20    21   ar
    11    21    22   ar
    12    22    24    1
    13    24    25    1
    14    24    26    1
    15    24    27    1
    16    22    23   ar
    17     7     8    1
    18     8     9    1
    19     9    10    1
    20    10    11    1
    21    11    12    1
    22    12    13    1
    23    13    14    1
    24     9    15    1
    25    15    16    1
    26    16     7    1
    27    23    18   ar
    28    14     9    1
    29     3     4    1
@<TRIPOS>MOLECULE
*****
 27 29 0 0 0
SMALL
GASTEIGER

@<TRIPOS>ATOM
      1 C          61.4397   88.4058   11.5542 C.2     1  UNL1        0.2252
      2 O          60.0907   87.9419   11.0908 O.2     1  UNL1       -0.2750
      3 N          62.5814   87.4358   11.6295 N.am    1  UNL1       -0.3004
      4 H          63.4669   87.7403   11.9337 H       1  UNL1        0.1497
      5 C          61.6472   89.8399   11.9423 C.3     1  UNL1        0.1154
      6 C          61.7503   90.4587   10.0354 C.3     1  UNL1        0.0335
      7 C          62.6554   90.6762   11.2116 C.3     1  UNL1        0.1377
      8 C          63.3497   90.7188   12.5406 C.3     1  UNL1        0.0613
      9 C          64.5980   91.5361   12.3854 C.3     1  UNL1        0.1290
     10 C          65.8055   92.3719   12.0797 C.3     1  UNL1        0.0305
     11 C          66.8016   92.6737   13.1598 C.3     1  UNL1        0.0025
     12 C          66.5904   92.1397   14.5455 C.3     1  UNL1        0.0002
     13 C          65.3829   91.3039   14.8512 C.3     1  UNL1        0.0025
     14 C          64.3868   91.0021   13.7711 C.3     1  UNL1        0.0305
     15 O          64.6752   91.9985   10.9605 O.3     1  UNL1       -0.2256
     16 O          63.4745   91.4671   10.2351 O.3     1  UNL1       -0.2251
     17 C          62.3740   86.0018   11.2414 C.3     1  UNL1        0.1163
     18 C          62.8424   84.9037   12.1496 C.ar    1  UNL1       -0.0026
     19 C          63.5543   85.2391   13.4266 C.ar    1  UNL1       -0.0026
     20 C          64.0228   84.1410   14.3348 C.ar    1  UNL1       -0.0003
     21 C          63.7793   82.7076   13.9660 C.ar    1  UNL1        0.0038
     22 C          63.0674   82.3723   12.6891 C.ar    1  UNL1        0.0712
     23 C          62.5989   83.4703   11.7808 C.ar    1  UNL1        0.0012
     24 C          62.8238   80.9389   12.3203 C.3     1  UNL1        0.4186
     25 F          62.5803   79.5055   11.9515 F       1  UNL1       -0.1659
     26 F          62.5637   80.6124   13.7611 F       1  UNL1       -0.1659
     27 F          63.0840   81.2652   10.8796 F       1  UNL1       -0.1659
@<TRIPOS>BOND
     1     6     7    1
     2     7     5    1
     3     5     1    1
     4     1     2    2
     5     1     3   am
     6     3    17    1
     7    17    18    1
     8    18    19   ar
     9    19    20   ar
    10    20    21   ar
    11    21    22   ar
    12    22    24    1
    13    24    25    1
    14    24    26    1
    15    24    27    1
    16    22    23   ar
    17     7     8    1
    18     8     9    1
    19     9    10    1
    20    10    11    1
    21    11    12    1
    22    12    13    1
    23    13    14    1
    24     9    15    1
    25    15    16    1
    26    16     7    1
    27    23    18   ar
    28    14     9    1
    29     3     4    1
@<TRIPOS>MOLECULE
*****
 27 29 0 0 0
SMALL
GASTEIGER

@<TRIPOS>ATOM
      1 C          63.5129   83.8478   11.1166 C.2     1  UNL1        0.2252
      2 O          63.8727   83.4107    9.7276 O.2     1  UNL1       -0.2750
      3 N          62.3967   84.8271   11.3293 N.am    1  UNL1       -0.3004
      4 H          62.1606   85.1140   12.2410 H       1  UNL1        0.1497
      5 C          64.2694   83.3057   12.2930 C.3     1  UNL1        0.1154
      6 C          63.3990   81.6864   13.0993 C.3     1  UNL1        0.0335
      7 C          63.5676   83.0899   13.6010 C.3     1  UNL1        0.1377
      8 C          63.8830   84.5385   13.8293 C.3     1  UNL1        0.0613
      9 C          63.3408   84.9247   15.1736 C.3     1  UNL1        0.1290
     10 C          62.7485   85.1626   16.5310 C.3     1  UNL1        0.0305
     11 C          62.8407   86.5203   17.1619 C.3     1  UNL1        0.0025
     12 C          63.5250   87.6401   16.4354 C.3     1  UNL1        0.0002
     13 C          64.1173   87.4022   15.0780 C.3     1  UNL1        0.0025
     14 C          64.0251   86.0445   14.4471 C.3     1  UNL1        0.0305
     15 O          62.6904   83.7147   15.7761 O.3     1  UNL1       -0.2256
     16 O          62.8305   82.5807   14.8042 O.3     1  UNL1       -0.2251
     17 C          61.6403   85.3692   10.1528 C.3     1  UNL1        0.1163
     18 C          61.4526   86.8494    9.9994 C.ar    1  UNL1       -0.0026
     19 C          60.3090   87.3802    9.1867 C.ar    1  UNL1       -0.0026
     20 C          60.1213   88.8604    9.0332 C.ar    1  UNL1       -0.0003
     21 C          61.0772   89.8100    9.6925 C.ar    1  UNL1        0.0038
     22 C          62.2208   89.2793   10.5051 C.ar    1  UNL1        0.0712
     23 C          62.4085   87.7989   10.6586 C.ar    1  UNL1        0.0012
     24 C          63.1767   90.2288   11.1643 C.3     1  UNL1        0.4186
     25 F          64.1326   91.1783   11.8235 F       1  UNL1       -0.1659
     26 F          63.0381   91.1722   10.0064 F       1  UNL1       -0.1659
     27 F          63.3154   89.2855   12.3222 F       1  UNL1       -0.1659
@<TRIPOS>BOND
     1     6     7    1
     2     7     5    1
     3     5     1    1
     4     1     2    2
     5     1     3   am
     6     3    17    1
     7    17    18    1
     8    18    19   ar
     9    19    20   ar
    10    20    21   ar
    11    21    22   ar
    12    22    24    1
    13    24    25    1
    14    24    26    1
    15    24    27    1
    16    22    23   ar
    17     7     8    1
    18     8     9    1
    19     9    10    1
    20    10    11    1
    21    11    12    1
    22    12    13    1
    23    13    14    1
    24     9    15    1
    25    15    16    1
    26    16     7    1
    27    23    18   ar
    28    14     9    1
    29     3     4    1
