@<TRIPOS>MOLECULE
*****
 35 38 0 0 0
SMALL
GASTEIGER

@<TRIPOS>ATOM
      1 N          63.1077   90.8146   11.9105 N.am    1  UNL1       -0.2438
      2 C          63.6096   91.4004   10.6241 C.3     1  UNL1        0.1009
      3 C          64.8094   92.3008   10.6278 C.3     1  UNL1        0.0662
      4 C          65.5071   92.6153   11.9177 C.3     1  UNL1        0.1600
      5 O          65.0051   92.0295   13.2042 O.3     1  UNL1       -0.4374
      6 C          63.8054   91.1292   13.2006 C.2     1  UNL1        0.4051
      7 O          63.3034   90.5434   14.4870 O.2     1  UNL1       -0.2262
      8 C          66.3535   93.4057   10.9643 C.ar    1  UNL1        0.0138
      9 C          67.2525   92.6971    9.9950 C.ar    1  UNL1       -0.0010
     10 C          68.0989   93.4875    9.0416 C.ar    1  UNL1       -0.0002
     11 C          68.0462   94.9865    9.0576 C.ar    1  UNL1       -0.0000
     12 C          67.1472   95.6951   10.0270 C.ar    1  UNL1       -0.0002
     13 C          66.3008   94.9047   10.9804 C.ar    1  UNL1       -0.0010
     14 C          60.5339   90.4949   12.0643 C.3     1  UNL1        0.0265
     15 C          61.9079   89.9142   11.9069 C.3     1  UNL1        0.1011
     16 C          62.0823   88.4331   11.7458 C.ar    1  UNL1       -0.0042
     17 C          61.2332   87.6803   10.7649 C.ar    1  UNL1       -0.0026
     18 C          61.4076   86.1992   10.6038 C.ar    1  UNL1        0.0012
     19 C          62.4310   85.4709   11.4237 C.ar    1  UNL1        0.0176
     20 C          63.2801   86.2238   12.4047 C.ar    1  UNL1        0.0012
     21 C          63.1057   87.7048   12.5657 C.ar    1  UNL1       -0.0026
     22 C          62.6054   83.9898   11.2626 C.ar    1  UNL1        0.0813
     23 C          63.3690   83.4475   10.0910 C.ar    1  UNL1        0.0198
     24 C          63.5434   81.9664    9.9299 C.ar    1  UNL1        0.0134
     25 C          62.9540   81.0276   10.9405 C.ar    1  UNL1        0.0876
     26 C          62.1903   81.5699   12.1122 C.ar    1  UNL1        0.1090
     27 N          62.0160   83.0510   12.2732 N.ar    1  UNL1       -0.2431
     28 C          63.1283   79.5465   10.7795 C.1     1  UNL1        0.1020
     29 N          63.3026   78.0654   10.6185 N.1     1  UNL1       -0.1908
     30 C          66.4988   93.2044   12.8767 C.3     1  UNL1        0.0714
     31 C          67.1266   92.3414   13.9307 C.3     1  UNL1        0.0922
     32 C          67.8813   91.5954   12.8705 C.3     1  UNL1        0.0294
     33 C          66.3720   93.0874   14.9909 C.3     1  UNL1        0.0294
     34 O          67.7545   91.4784   14.9847 O.3     1  UNL1       -0.3866
     35 H          68.3499   90.8376   14.5655 H       1  UNL1        0.2102
@<TRIPOS>BOND
     1    15    14    1
     2    15    16    1
     3    16    17   ar
     4    17    18   ar
     5    18    19   ar
     6    19    22    1
     7    22    23   ar
     8    23    24   ar
     9    24    25   ar
    10    25    28    1
    11    28    29    3
    12    25    26   ar
    13    26    27   ar
    14    19    20   ar
    15    20    21   ar
    16    15     1    1
    17     1     2    1
    18     2     3    1
    19     3     4    1
    20     4    30    1
    21    30    31    1
    22    31    32    1
    23    31    33    1
    24    31    34    1
    25     4     8    1
    26     8     9   ar
    27     9    10   ar
    28    10    11   ar
    29    11    12   ar
    30    12    13   ar
    31     4     5    1
    32     5     6    1
    33     6     7    2
    34    21    16   ar
    35     6     1   am
    36    27    22   ar
    37    13     8   ar
    38    34    35    1
@<TRIPOS>MOLECULE
*****
 35 38 0 0 0
SMALL
GASTEIGER

@<TRIPOS>ATOM
      1 N          63.1085   90.8128   11.9154 N.am    1  UNL1       -0.2438
      2 C          63.6089   91.4004   10.6293 C.3     1  UNL1        0.1009
      3 C          64.8089   92.3004   10.6327 C.3     1  UNL1        0.0662
      4 C          65.5084   92.6129   11.9222 C.3     1  UNL1        0.1600
      5 O          65.0079   92.0253   13.2085 O.3     1  UNL1       -0.4374
      6 C          63.8080   91.1253   13.2051 C.2     1  UNL1        0.4051
      7 O          63.3075   90.5377   14.4912 O.2     1  UNL1       -0.2262
      8 C          66.3538   93.4044   10.9689 C.ar    1  UNL1        0.0138
      9 C          66.3007   94.9034   10.9864 C.ar    1  UNL1       -0.0010
     10 C          67.1461   95.6950   10.0331 C.ar    1  UNL1       -0.0002
     11 C          68.0445   94.9875    9.0624 C.ar    1  UNL1       -0.0000
     12 C          68.0977   93.4886    9.0449 C.ar    1  UNL1       -0.0002
     13 C          67.2523   92.6970    9.9982 C.ar    1  UNL1       -0.0010
     14 C          60.5346   90.4940   12.0685 C.3     1  UNL1        0.0265
     15 C          61.9085   89.9128   11.9120 C.3     1  UNL1        0.1011
     16 C          62.0825   88.4314   11.7522 C.ar    1  UNL1       -0.0042
     17 C          63.1127   87.7052   12.5652 C.ar    1  UNL1       -0.0026
     18 C          63.2867   86.2240   12.4054 C.ar    1  UNL1        0.0012
     19 C          62.4304   85.4690   11.4324 C.ar    1  UNL1        0.0176
     20 C          61.4001   86.1952   10.6193 C.ar    1  UNL1        0.0012
     21 C          61.2262   87.6764   10.7792 C.ar    1  UNL1       -0.0026
     22 C          62.6043   83.9876   11.2725 C.ar    1  UNL1        0.0813
     23 C          63.3566   83.4437   10.0943 C.ar    1  UNL1        0.0198
     24 C          63.5306   81.9623    9.9345 C.ar    1  UNL1        0.0134
     25 C          62.9523   81.0251   10.9528 C.ar    1  UNL1        0.0876
     26 C          62.2000   81.5691   12.1310 C.ar    1  UNL1        0.1090
     27 N          62.0260   83.0503   12.2908 N.ar    1  UNL1       -0.2431
     28 C          63.1262   79.5438   10.7930 C.1     1  UNL1        0.1020
     29 N          63.3002   78.0626   10.6332 N.1     1  UNL1       -0.1908
     30 C          66.5015   93.2002   12.8808 C.3     1  UNL1        0.0714
     31 C          67.1249   92.3373   13.9374 C.3     1  UNL1        0.0922
     32 C          66.3624   93.0803   14.9942 C.3     1  UNL1        0.0294
     33 C          67.8874   91.5943   12.8808 C.3     1  UNL1        0.0294
     34 O          67.7483   91.4743   14.9942 O.3     1  UNL1       -0.3866
     35 H          67.4177   91.7413   15.8661 H       1  UNL1        0.2102
@<TRIPOS>BOND
     1    15    14    1
     2    15    16    1
     3    16    17   ar
     4    17    18   ar
     5    18    19   ar
     6    19    22    1
     7    22    23   ar
     8    23    24   ar
     9    24    25   ar
    10    25    28    1
    11    28    29    3
    12    25    26   ar
    13    26    27   ar
    14    19    20   ar
    15    20    21   ar
    16    15     1    1
    17     1     2    1
    18     2     3    1
    19     3     4    1
    20     4    30    1
    21    30    31    1
    22    31    32    1
    23    31    33    1
    24    31    34    1
    25     4     8    1
    26     8     9   ar
    27     9    10   ar
    28    10    11   ar
    29    11    12   ar
    30    12    13   ar
    31     4     5    1
    32     5     6    1
    33     6     7    2
    34    21    16   ar
    35     6     1   am
    36    27    22   ar
    37    13     8   ar
    38    34    35    1
@<TRIPOS>MOLECULE
*****
 35 38 0 0 0
SMALL
GASTEIGER

@<TRIPOS>ATOM
      1 N          63.4276   90.4818   12.1198 N.am    1  UNL1       -0.2438
      2 C          64.0883   90.3346   13.4584 C.3     1  UNL1        0.1009
      3 C          65.3009   91.1529   13.7902 C.3     1  UNL1        0.0662
      4 C          65.8527   92.1183   12.7835 C.3     1  UNL1        0.1600
      5 O          65.1919   92.2655   11.4449 O.3     1  UNL1       -0.4374
      6 C          63.9794   91.4473   11.1131 C.2     1  UNL1        0.4051
      7 O          63.3186   91.5945    9.7746 O.2     1  UNL1       -0.2262
      8 C          66.8221   92.3322   13.9081 C.ar    1  UNL1        0.0138
      9 C          68.2898   92.1192   13.6838 C.ar    1  UNL1       -0.0010
     10 C          69.2592   92.3331   14.8084 C.ar    1  UNL1       -0.0002
     11 C          68.7607   92.7600   16.1572 C.ar    1  UNL1       -0.0000
     12 C          67.2929   92.9730   16.3815 C.ar    1  UNL1       -0.0002
     13 C          66.3236   92.7591   15.2569 C.ar    1  UNL1       -0.0010
     14 C          60.8897   90.3356   11.5836 C.3     1  UNL1        0.0265
     15 C          62.2150   89.6635   11.7880 C.3     1  UNL1        0.1011
     16 C          62.3278   88.1732   11.6606 C.ar    1  UNL1       -0.0042
     17 C          61.6257   87.4607   10.5428 C.ar    1  UNL1       -0.0026
     18 C          61.7385   85.9704   10.4155 C.ar    1  UNL1        0.0012
     19 C          62.5535   85.1926   11.4058 C.ar    1  UNL1        0.0176
     20 C          63.2556   85.9051   12.5235 C.ar    1  UNL1        0.0012
     21 C          63.1428   87.3953   12.6509 C.ar    1  UNL1       -0.0026
     22 C          62.6663   83.7022   11.2784 C.ar    1  UNL1        0.0813
     23 C          63.3558   83.1012   10.0896 C.ar    1  UNL1        0.0198
     24 C          63.4686   81.6108    9.9622 C.ar    1  UNL1        0.0134
     25 C          62.8919   80.7216   11.0236 C.ar    1  UNL1        0.0876
     26 C          62.2023   81.3227   12.2124 C.ar    1  UNL1        0.1090
     27 N          62.0895   82.8130   12.3398 N.ar    1  UNL1       -0.2431
     28 C          63.0046   79.2313   10.8962 C.1     1  UNL1        0.1020
     29 N          63.1174   77.7410   10.7688 N.1     1  UNL1       -0.1908
     30 C          66.7412   93.1581   12.1674 C.3     1  UNL1        0.0714
     31 C          66.5655   93.5364   10.7266 C.3     1  UNL1        0.0922
     32 C          67.3738   92.3418   10.3144 C.3     1  UNL1        0.0294
     33 C          65.7573   94.7308   11.1387 C.3     1  UNL1        0.0294
     34 O          66.3899   93.9146    9.2857 O.3     1  UNL1       -0.3866
     35 H          66.8449   93.2678    8.7239 H       1  UNL1        0.2102
@<TRIPOS>BOND
     1    15    14    1
     2    15    16    1
     3    16    17   ar
     4    17    18   ar
     5    18    19   ar
     6    19    22    1
     7    22    23   ar
     8    23    24   ar
     9    24    25   ar
    10    25    28    1
    11    28    29    3
    12    25    26   ar
    13    26    27   ar
    14    19    20   ar
    15    20    21   ar
    16    15     1    1
    17     1     2    1
    18     2     3    1
    19     3     4    1
    20     4    30    1
    21    30    31    1
    22    31    32    1
    23    31    33    1
    24    31    34    1
    25     4     8    1
    26     8     9   ar
    27     9    10   ar
    28    10    11   ar
    29    11    12   ar
    30    12    13   ar
    31     4     5    1
    32     5     6    1
    33     6     7    2
    34    21    16   ar
    35     6     1   am
    36    27    22   ar
    37    13     8   ar
    38    34    35    1
