@<TRIPOS>MOLECULE
*****
 35 39 0 0 0
SMALL
GASTEIGER

@<TRIPOS>ATOM
      1 C          61.8793   88.9930   10.5000 C.ar    1  UNL1        0.0363
      2 C          61.9457   88.4729   11.9053 C.ar    1  UNL1        0.0179
      3 C          62.8172   89.3984   12.7014 C.ar    1  UNL1        0.0657
      4 N          63.2895   90.4906   11.7881 N.ar    1  UNL1       -0.2630
      5 C          62.7098   90.2401   10.4275 C.ar    1  UNL1        0.0854
      6 C          64.1610   91.4161   12.5842 C.2     1  UNL1        0.3236
      7 O          64.8459   92.6459   12.0659 O.2     1  UNL1       -0.2489
      8 N          64.2274   90.8960   13.9896 N.am    1  UNL1       -0.2514
      9 C          63.3969   89.6490   14.0620 C.3     1  UNL1        0.1398
     10 C          62.3710   86.1315    9.7449 C.3     1  UNL1        0.0342
     11 C          61.3622   86.9440    8.9886 C.ar    1  UNL1        0.0151
     12 C          60.5992   86.3258    7.8547 C.ar    1  UNL1        0.0990
     13 N          59.5903   87.1383    7.0984 N.ar    1  UNL1       -0.2123
     14 C          59.3444   88.5690    7.4759 C.ar    1  UNL1        0.2217
     15 N          60.1074   89.1872    8.6098 N.ar    1  UNL1       -0.2138
     16 C          61.1163   88.3748    9.3661 C.ar    1  UNL1        0.0832
     17 N          58.3356   89.3815    6.7196 N.pl3   1  UNL1       -0.2681
     18 H          57.3736   89.2308    6.8647 H       1  UNL1        0.1565
     19 C          58.7924   90.4237    5.7423 C.ar    1  UNL1        0.1328
     20 C          60.2152   90.7235    5.3738 C.ar    1  UNL1        0.0565
     21 C          60.2088   91.8342    4.3656 C.ar    1  UNL1        0.1230
     22 N          58.7820   92.2207    4.1110 N.ar    1  UNL1       -0.1665
     23 N          57.9066   91.3490    4.9618 N.ar    1  UNL1       -0.2355
     24 C          56.4085   91.3946    5.0216 C.3     1  UNL1        0.1552
     25 C          64.9904   91.5142   15.1234 C.3     1  UNL1        0.1292
     26 C          66.4194   91.9269   14.9290 C.ar    1  UNL1       -0.0009
     27 C          67.2505   91.2740   13.8648 C.ar    1  UNL1       -0.0025
     28 C          68.6795   91.6867   13.6704 C.ar    1  UNL1        0.0006
     29 C          69.2773   92.7524   14.5405 C.ar    1  UNL1        0.0114
     30 C          68.4461   93.4054   15.6048 C.ar    1  UNL1        0.0574
     31 CL         69.0438   94.4711   16.4748 Cl      1  UNL1       -0.0823
     32 C          67.0171   92.9926   15.7991 C.ar    1  UNL1        0.0088
     33 C          64.3244   91.7199   16.4516 C.3     1  UNL1        0.1614
     34 O          64.2001   93.1015   17.0225 O.3     1  UNL1       -0.3799
     35 H          65.0828   93.4469   17.2283 H       1  UNL1        0.2105
@<TRIPOS>BOND
     1    10    11    1
     2    11    12   ar
     3    12    13   ar
     4    13    14   ar
     5    14    17    1
     6    17    19    1
     7    19    20   ar
     8    20    21   ar
     9    21    22   ar
    10    22    23   ar
    11    23    24    1
    12    14    15   ar
    13    15    16   ar
    14    16     1    1
    15     1     2   ar
    16     2     3   ar
    17     3     4   ar
    18     4     5   ar
    19     4     6   am
    20     6     7    2
    21     6     8   am
    22     8    25    1
    23    25    33    1
    24    33    34    1
    25    25    26    1
    26    26    27   ar
    27    27    28   ar
    28    28    29   ar
    29    29    30   ar
    30    30    31    1
    31    30    32   ar
    32     8     9    1
    33    16    11   ar
    34     5     1   ar
    35    32    26   ar
    36    23    19   ar
    37     9     3    1
    38    17    18    1
    39    34    35    1
@<TRIPOS>MOLECULE
*****
 35 39 0 0 0
SMALL
GASTEIGER

@<TRIPOS>ATOM
      1 C          64.5669   89.2784   14.4954 C.ar    1  UNL1        0.0363
      2 C          63.9048   89.8970   13.3001 C.ar    1  UNL1        0.0179
      3 C          64.6485   91.1536   12.9567 C.ar    1  UNL1        0.0657
      4 N          65.7703   91.3116   13.9399 N.ar    1  UNL1       -0.2630
      5 C          65.7199   90.1527   14.8909 C.ar    1  UNL1        0.0854
      6 C          66.5141   92.5681   13.5966 C.2     1  UNL1        0.3236
      7 O          67.7100   93.1108   14.3214 O.2     1  UNL1       -0.2489
      8 N          65.8520   93.1868   12.4012 N.am    1  UNL1       -0.2514
      9 C          64.6990   92.3125   12.0057 C.3     1  UNL1        0.1398
     10 C          62.8590   89.3884   16.9595 C.3     1  UNL1        0.0342
     11 C          63.2955   88.0636   16.4079 C.ar    1  UNL1        0.0151
     12 C          62.8780   86.7936   17.0884 C.ar    1  UNL1        0.0990
     13 N          63.3144   85.4687   16.5369 N.ar    1  UNL1       -0.2123
     14 C          64.1683   85.4137   15.3049 C.ar    1  UNL1        0.2217
     15 N          64.5858   86.6836   14.6244 N.ar    1  UNL1       -0.2138
     16 C          64.1494   88.0085   15.1759 C.ar    1  UNL1        0.0832
     17 N          64.6047   84.0888   14.7533 N.pl3   1  UNL1       -0.2681
     18 H          65.2985   83.5668   15.2175 H       1  UNL1        0.1565
     19 C          63.9842   83.5592   13.4946 C.ar    1  UNL1        0.1328
     20 C          64.4635   83.8208   12.0975 C.ar    1  UNL1        0.0565
     21 C          63.5509   83.0983   11.1514 C.ar    1  UNL1        0.1230
     22 N          62.5076   82.3902   11.9638 N.ar    1  UNL1       -0.1665
     23 N          62.7753   82.6750   13.4120 N.ar    1  UNL1       -0.2355
     24 C          61.9748   82.1652   14.5735 C.3     1  UNL1        0.1552
     25 C          66.2695   94.4566   11.7207 C.3     1  UNL1        0.1292
     26 C          66.8716   94.4089   10.3476 C.ar    1  UNL1       -0.0009
     27 C          66.6600   95.5487    9.3959 C.ar    1  UNL1       -0.0025
     28 C          67.2621   95.5009    8.0228 C.ar    1  UNL1        0.0006
     29 C          68.0757   94.3132    7.6016 C.ar    1  UNL1        0.0114
     30 C          68.2873   93.1734    8.5534 C.ar    1  UNL1        0.0574
     31 CL         69.1009   91.9857    8.1322 Cl      1  UNL1       -0.0823
     32 C          67.6852   93.2212    9.9264 C.ar    1  UNL1        0.0088
     33 C          66.0850   95.7743   12.4133 C.3     1  UNL1        0.1614
     34 O          65.2726   96.8555   11.7643 O.3     1  UNL1       -0.3799
     35 H          65.7206   97.1570   10.9585 H       1  UNL1        0.2105
@<TRIPOS>BOND
     1    10    11    1
     2    11    12   ar
     3    12    13   ar
     4    13    14   ar
     5    14    17    1
     6    17    19    1
     7    19    20   ar
     8    20    21   ar
     9    21    22   ar
    10    22    23   ar
    11    23    24    1
    12    14    15   ar
    13    15    16   ar
    14    16     1    1
    15     1     2   ar
    16     2     3   ar
    17     3     4   ar
    18     4     5   ar
    19     4     6   am
    20     6     7    2
    21     6     8   am
    22     8    25    1
    23    25    33    1
    24    33    34    1
    25    25    26    1
    26    26    27   ar
    27    27    28   ar
    28    28    29   ar
    29    29    30   ar
    30    30    31    1
    31    30    32   ar
    32     8     9    1
    33    16    11   ar
    34     5     1   ar
    35    32    26   ar
    36    23    19   ar
    37     9     3    1
    38    17    18    1
    39    34    35    1
@<TRIPOS>MOLECULE
*****
 35 39 0 0 0
SMALL
GASTEIGER

@<TRIPOS>ATOM
      1 C          64.5865   89.2341   14.4849 C.ar    1  UNL1        0.0363
      2 C          65.6004   90.2017   15.0194 C.ar    1  UNL1        0.0179
      3 C          65.7176   91.3358   14.0447 C.ar    1  UNL1        0.0657
      4 N          64.7762   91.0691   12.9078 N.ar    1  UNL1       -0.2630
      5 C          64.0771   89.7702   13.1798 C.ar    1  UNL1        0.0854
      6 C          64.8934   92.2032   11.9330 C.2     1  UNL1        0.3236
      7 O          64.1307   92.3448   10.6492 O.2     1  UNL1       -0.2489
      8 N          65.9073   93.1709   12.4675 N.am    1  UNL1       -0.2514
      9 C          66.4167   92.6348   13.7726 C.3     1  UNL1        0.1398
     10 C          62.8607   89.3109   16.9376 C.3     1  UNL1        0.0342
     11 C          63.2945   87.9934   16.3667 C.ar    1  UNL1        0.0151
     12 C          62.8653   86.7142   17.0221 C.ar    1  UNL1        0.0990
     13 N          63.2990   85.3966   16.4512 N.ar    1  UNL1       -0.2123
     14 C          64.1619   85.3582   15.2248 C.ar    1  UNL1        0.2217
     15 N          64.5910   86.6374   14.5694 N.ar    1  UNL1       -0.2138
     16 C          64.1573   87.9550   15.1403 C.ar    1  UNL1        0.0832
     17 N          64.5956   84.0407   14.6539 N.pl3   1  UNL1       -0.2681
     18 H          65.5508   83.8032   14.6345 H       1  UNL1        0.1565
     19 C          63.5741   83.0851   14.1124 C.ar    1  UNL1        0.1328
     20 C          62.3966   82.5353   14.8616 C.ar    1  UNL1        0.0565
     21 C          61.6455   81.6219   13.9388 C.ar    1  UNL1        0.1230
     22 N          62.3586   81.6073   12.6193 N.ar    1  UNL1       -0.1665
     23 N          63.5506   82.5116   12.7265 N.ar    1  UNL1       -0.2355
     24 C          64.5446   82.7930   11.6390 C.3     1  UNL1        0.1552
     25 C          66.3365   94.4499   11.8121 C.3     1  UNL1        0.1292
     26 C          66.8000   94.4430   10.3854 C.ar    1  UNL1       -0.0009
     27 C          67.7158   93.3590    9.8997 C.ar    1  UNL1       -0.0025
     28 C          68.1793   93.3520    8.4731 C.ar    1  UNL1        0.0006
     29 C          67.7269   94.4291    7.5323 C.ar    1  UNL1        0.0114
     30 C          66.8110   95.5132    8.0181 C.ar    1  UNL1        0.0574
     31 CL         66.3585   96.5903    7.0773 Cl      1  UNL1       -0.0823
     32 C          66.3475   95.5201    9.4447 C.ar    1  UNL1        0.0088
     33 C          66.3022   95.7361   12.5832 C.3     1  UNL1        0.1614
     34 O          65.4070   96.8542   12.1375 O.3     1  UNL1       -0.3799
     35 H          65.7098   97.1880   11.2785 H       1  UNL1        0.2105
@<TRIPOS>BOND
     1    10    11    1
     2    11    12   ar
     3    12    13   ar
     4    13    14   ar
     5    14    17    1
     6    17    19    1
     7    19    20   ar
     8    20    21   ar
     9    21    22   ar
    10    22    23   ar
    11    23    24    1
    12    14    15   ar
    13    15    16   ar
    14    16     1    1
    15     1     2   ar
    16     2     3   ar
    17     3     4   ar
    18     4     5   ar
    19     4     6   am
    20     6     7    2
    21     6     8   am
    22     8    25    1
    23    25    33    1
    24    33    34    1
    25    25    26    1
    26    26    27   ar
    27    27    28   ar
    28    28    29   ar
    29    29    30   ar
    30    30    31    1
    31    30    32   ar
    32     8     9    1
    33    16    11   ar
    34     5     1   ar
    35    32    26   ar
    36    23    19   ar
    37     9     3    1
    38    17    18    1
    39    34    35    1
@<TRIPOS>MOLECULE
*****
 35 39 0 0 0
SMALL
GASTEIGER

@<TRIPOS>ATOM
      1 C          64.9034   90.5084   13.4705 C.ar    1  UNL1        0.0363
      2 C          65.2805   89.6529   14.6435 C.ar    1  UNL1        0.0179
      3 C          64.5875   88.3309   14.4948 C.ar    1  UNL1        0.0657
      4 N          63.7820   88.3694   13.2300 N.ar    1  UNL1       -0.2630
      5 C          63.9773   89.7152   12.5969 C.ar    1  UNL1        0.0854
      6 C          63.0890   87.0475   13.0813 C.2     1  UNL1        0.3236
      7 O          62.1787   86.6508   11.9570 O.2     1  UNL1       -0.2489
      8 N          63.4661   86.1919   14.2543 N.am    1  UNL1       -0.2514
      9 C          64.3922   86.9852   15.1278 C.3     1  UNL1        0.1398
     10 C          66.6092   91.9133   15.4996 C.3     1  UNL1        0.0342
     11 C          66.2233   92.6133   14.2304 C.ar    1  UNL1        0.0151
     12 C          66.6903   94.0159   13.9756 C.ar    1  UNL1        0.0990
     13 N          66.3044   94.7160   12.7064 N.ar    1  UNL1       -0.2123
     14 C          65.4516   94.0136   11.6919 C.ar    1  UNL1        0.2217
     15 N          64.9846   92.6110   11.9466 N.ar    1  UNL1       -0.2138
     16 C          65.3704   91.9109   13.2158 C.ar    1  UNL1        0.0832
     17 N          65.0657   94.7136   10.4226 N.pl3   1  UNL1       -0.2681
     18 H          64.1172   94.7857   10.1690 H       1  UNL1        0.1565
     19 C          66.1250   95.3039    9.5397 C.ar    1  UNL1        0.1328
     20 C          66.1217   96.6889    8.9637 C.ar    1  UNL1        0.0565
     21 C          67.3682   96.8537    8.1458 C.ar    1  UNL1        0.1230
     22 N          68.1419   95.5706    8.2163 N.ar    1  UNL1       -0.1665
     23 N          67.3736   94.6127    9.0778 N.ar    1  UNL1       -0.2355
     24 C          67.7821   93.2100    9.4178 C.3     1  UNL1        0.1552
     25 C          62.9991   84.7895   14.5089 C.3     1  UNL1        0.1292
     26 C          63.2117   83.7279   13.4706 C.ar    1  UNL1       -0.0009
     27 C          63.9727   84.0459   12.2178 C.ar    1  UNL1       -0.0025
     28 C          64.1854   82.9844   11.1795 C.ar    1  UNL1        0.0006
     29 C          63.6370   81.6048   11.3942 C.ar    1  UNL1        0.0114
     30 C          62.8760   81.2868   12.6471 C.ar    1  UNL1        0.0574
     31 CL         62.3276   79.9073   12.8618 Cl      1  UNL1       -0.0823
     32 C          62.6634   82.3484   13.6853 C.ar    1  UNL1        0.0088
     33 C          62.3194   84.4484   15.8018 C.3     1  UNL1        0.1614
     34 O          61.6056   85.5151   16.5783 O.3     1  UNL1       -0.3799
     35 H          62.2489   86.1660   16.8999 H       1  UNL1        0.2105
@<TRIPOS>BOND
     1    10    11    1
     2    11    12   ar
     3    12    13   ar
     4    13    14   ar
     5    14    17    1
     6    17    19    1
     7    19    20   ar
     8    20    21   ar
     9    21    22   ar
    10    22    23   ar
    11    23    24    1
    12    14    15   ar
    13    15    16   ar
    14    16     1    1
    15     1     2   ar
    16     2     3   ar
    17     3     4   ar
    18     4     5   ar
    19     4     6   am
    20     6     7    2
    21     6     8   am
    22     8    25    1
    23    25    33    1
    24    33    34    1
    25    25    26    1
    26    26    27   ar
    27    27    28   ar
    28    28    29   ar
    29    29    30   ar
    30    30    31    1
    31    30    32   ar
    32     8     9    1
    33    16    11   ar
    34     5     1   ar
    35    32    26   ar
    36    23    19   ar
    37     9     3    1
    38    17    18    1
    39    34    35    1
@<TRIPOS>MOLECULE
*****
 35 39 0 0 0
SMALL
GASTEIGER

@<TRIPOS>ATOM
      1 C          64.2063   88.6770   14.2745 C.ar    1  UNL1        0.0363
      2 C          64.6280   87.3603   14.8562 C.ar    1  UNL1        0.0179
      3 C          64.1857   86.2763   13.9185 C.ar    1  UNL1        0.0657
      4 N          63.4906   86.9231   12.7572 N.ar    1  UNL1       -0.2630
      5 C          63.5033   88.4068   12.9773 C.ar    1  UNL1        0.0854
      6 C          63.0483   85.8391   11.8195 C.2     1  UNL1        0.3236
      7 O          62.3132   86.0371   10.5270 O.2     1  UNL1       -0.2489
      8 N          63.4701   84.5223   12.4011 N.am    1  UNL1       -0.2514
      9 C          64.1730   84.7926   13.6984 C.3     1  UNL1        0.1398
     10 C          62.9052   89.3999   16.8793 C.3     1  UNL1        0.0342
     11 C          63.7949   90.3884   16.1855 C.ar    1  UNL1        0.0151
     12 C          64.0342   91.7383   16.7941 C.ar    1  UNL1        0.0990
     13 N          64.9239   92.7269   16.1004 N.ar    1  UNL1       -0.2123
     14 C          65.5744   92.3654   14.7981 C.ar    1  UNL1        0.2217
     15 N          65.3352   91.0154   14.1895 N.ar    1  UNL1       -0.2138
     16 C          64.4455   90.0269   14.8832 C.ar    1  UNL1        0.0832
     17 N          66.4641   93.3539   14.1043 N.pl3   1  UNL1       -0.2681
     18 H          66.9239   94.0520   14.6243 H       1  UNL1        0.1565
     19 C          66.6533   93.2787   12.6182 C.ar    1  UNL1        0.1328
     20 C          65.8599   94.0284   11.5893 C.ar    1  UNL1        0.0565
     21 C          66.3854   93.6537   10.2353 C.ar    1  UNL1        0.1230
     22 N          67.5036   92.6724   10.4273 N.ar    1  UNL1       -0.1665
     23 N          67.6692   92.4407   11.9000 N.ar    1  UNL1       -0.2355
     24 C          68.6742   91.5307   12.5419 C.3     1  UNL1        0.1552
     25 C          63.2309   83.1725   11.7925 C.3     1  UNL1        0.1292
     26 C          62.8091   82.0230   12.6591 C.ar    1  UNL1       -0.0009
     27 C          63.8342   81.0581   13.1764 C.ar    1  UNL1       -0.0025
     28 C          63.4124   79.9086   14.0430 C.ar    1  UNL1        0.0006
     29 C          61.9654   79.7242   14.3922 C.ar    1  UNL1        0.0114
     30 C          60.9401   80.6892   13.8748 C.ar    1  UNL1        0.0574
     31 CL         59.4930   80.5049   14.2240 Cl      1  UNL1       -0.0823
     32 C          61.3620   81.8386   13.0083 C.ar    1  UNL1        0.0088
     33 C          63.4134   82.9719   10.3172 C.3     1  UNL1        0.1614
     34 O          64.6804   82.3627    9.7942 O.3     1  UNL1       -0.3799
     35 H          65.4234   82.9610    9.9698 H       1  UNL1        0.2105
@<TRIPOS>BOND
     1    10    11    1
     2    11    12   ar
     3    12    13   ar
     4    13    14   ar
     5    14    17    1
     6    17    19    1
     7    19    20   ar
     8    20    21   ar
     9    21    22   ar
    10    22    23   ar
    11    23    24    1
    12    14    15   ar
    13    15    16   ar
    14    16     1    1
    15     1     2   ar
    16     2     3   ar
    17     3     4   ar
    18     4     5   ar
    19     4     6   am
    20     6     7    2
    21     6     8   am
    22     8    25    1
    23    25    33    1
    24    33    34    1
    25    25    26    1
    26    26    27   ar
    27    27    28   ar
    28    28    29   ar
    29    29    30   ar
    30    30    31    1
    31    30    32   ar
    32     8     9    1
    33    16    11   ar
    34     5     1   ar
    35    32    26   ar
    36    23    19   ar
    37     9     3    1
    38    17    18    1
    39    34    35    1
@<TRIPOS>MOLECULE
*****
 35 39 0 0 0
SMALL
GASTEIGER

@<TRIPOS>ATOM
      1 C          64.4968   88.8475   14.3468 C.ar    1  UNL1        0.0363
      2 C          64.9111   87.6561   15.1586 C.ar    1  UNL1        0.0179
      3 C          64.2341   86.4466   14.5854 C.ar    1  UNL1        0.0657
      4 N          63.4014   86.8903   13.4193 N.ar    1  UNL1       -0.2630
      5 C          63.5638   88.3742   13.2718 C.ar    1  UNL1        0.0854
      6 C          62.7244   85.6808   12.8461 C.2     1  UNL1        0.3236
      7 O          61.7962   85.6653   11.6679 O.2     1  UNL1       -0.2489
      8 N          63.1386   84.4893   13.6580 N.am    1  UNL1       -0.2514
      9 C          64.0716   84.9627   14.7329 C.3     1  UNL1        0.1398
     10 C          63.3805   90.4214   16.6440 C.3     1  UNL1        0.0342
     11 C          64.3800   91.0504   15.7191 C.ar    1  UNL1        0.0151
     12 C          64.8213   92.4665   15.9429 C.ar    1  UNL1        0.0990
     13 N          65.8208   93.0957   15.0181 N.ar    1  UNL1       -0.2123
     14 C          66.3789   92.3088   13.8695 C.ar    1  UNL1        0.2217
     15 N          65.9376   90.8927   13.6458 N.ar    1  UNL1       -0.2138
     16 C          64.9381   90.2635   14.5706 C.ar    1  UNL1        0.0832
     17 N          67.3783   92.9378   12.9446 N.pl3   1  UNL1       -0.2681
     18 H          68.3412   92.8627   13.1358 H       1  UNL1        0.1565
     19 C          66.9108   93.6813   11.7286 C.ar    1  UNL1        0.1328
     20 C          66.0928   94.9386   11.7243 C.ar    1  UNL1        0.0565
     21 C          65.8557   95.3324   10.2964 C.ar    1  UNL1        0.1230
     22 N          66.5272   94.3185    9.4184 N.ar    1  UNL1       -0.1665
     23 N          67.1794   93.2980   10.3035 N.ar    1  UNL1       -0.2355
     24 C          67.9625   92.1040    9.8442 C.3     1  UNL1        0.1552
     25 C          62.6974   83.0734   13.4342 C.3     1  UNL1        0.1292
     26 C          63.0617   82.3663   12.1623 C.ar    1  UNL1       -0.0009
     27 C          63.8328   83.0881   11.0974 C.ar    1  UNL1       -0.0025
     28 C          64.1971   82.3810    9.8256 C.ar    1  UNL1        0.0006
     29 C          63.7903   80.9521    9.6189 C.ar    1  UNL1        0.0114
     30 C          63.0191   80.2303   10.6840 C.ar    1  UNL1        0.0574
     31 CL         62.6122   78.8014   10.4773 Cl      1  UNL1       -0.0823
     32 C          62.6548   80.9374   11.9557 C.ar    1  UNL1        0.0088
     33 C          61.8917   82.3643   14.4821 C.3     1  UNL1        0.1614
     34 O          62.2495   80.9639   14.8833 O.3     1  UNL1       -0.3799
     35 H          62.1034   80.3656   14.1339 H       1  UNL1        0.2105
@<TRIPOS>BOND
     1    10    11    1
     2    11    12   ar
     3    12    13   ar
     4    13    14   ar
     5    14    17    1
     6    17    19    1
     7    19    20   ar
     8    20    21   ar
     9    21    22   ar
    10    22    23   ar
    11    23    24    1
    12    14    15   ar
    13    15    16   ar
    14    16     1    1
    15     1     2   ar
    16     2     3   ar
    17     3     4   ar
    18     4     5   ar
    19     4     6   am
    20     6     7    2
    21     6     8   am
    22     8    25    1
    23    25    33    1
    24    33    34    1
    25    25    26    1
    26    26    27   ar
    27    27    28   ar
    28    28    29   ar
    29    29    30   ar
    30    30    31    1
    31    30    32   ar
    32     8     9    1
    33    16    11   ar
    34     5     1   ar
    35    32    26   ar
    36    23    19   ar
    37     9     3    1
    38    17    18    1
    39    34    35    1
@<TRIPOS>MOLECULE
*****
 35 39 0 0 0
SMALL
GASTEIGER

@<TRIPOS>ATOM
      1 C          63.8245   90.6721   12.5307 C.ar    1  UNL1        0.0363
      2 C          63.2119   91.0421   11.2125 C.ar    1  UNL1        0.0179
      3 C          62.5135   89.8306   10.6696 C.ar    1  UNL1        0.0657
      4 N          62.6945   88.7119   11.6524 N.ar    1  UNL1       -0.2630
      5 C          63.5047   89.2320   12.8027 C.ar    1  UNL1        0.0854
      6 C          61.9962   87.5005   11.1096 C.2     1  UNL1        0.3236
      7 O          61.9233   86.1553   11.7692 O.2     1  UNL1       -0.2489
      8 N          61.3835   87.8704    9.7912 N.am    1  UNL1       -0.2514
      9 C          61.7033   89.3105    9.5194 C.3     1  UNL1        0.1398
     10 C          63.8887   90.1928   15.4915 C.3     1  UNL1        0.0342
     11 C          64.6497   91.3428   14.9012 C.ar    1  UNL1        0.0151
     12 C          65.4428   92.2532   15.7913 C.ar    1  UNL1        0.0990
     13 N          66.2038   93.4031   15.2011 N.ar    1  UNL1       -0.2123
     14 C          66.1717   93.6428   13.7207 C.ar    1  UNL1        0.2217
     15 N          65.3786   92.7324   12.8306 N.ar    1  UNL1       -0.2138
     16 C          64.6176   91.5824   13.4209 C.ar    1  UNL1        0.0832
     17 N          66.9327   94.7928   13.1304 N.pl3   1  UNL1       -0.2681
     18 H          67.7077   95.1672   13.6082 H       1  UNL1        0.1565
     19 C          66.5128   95.3722   11.8120 C.ar    1  UNL1        0.1328
     20 C          65.7900   96.6709   11.6098 C.ar    1  UNL1        0.0565
     21 C          65.5726   96.8560   10.1373 C.ar    1  UNL1        0.1230
     22 N          66.1610   95.6716    9.4294 N.ar    1  UNL1       -0.1665
     23 N          66.7421   94.7546   10.4645 N.ar    1  UNL1       -0.2355
     24 C          67.4314   93.4491   10.1986 C.3     1  UNL1        0.1552
     25 C          60.5905   86.9601    8.9012 C.3     1  UNL1        0.1292
     26 C          61.2950   85.9670    8.0251 C.ar    1  UNL1       -0.0009
     27 C          62.6881   85.5250    8.3622 C.ar    1  UNL1       -0.0025
     28 C          63.3927   84.5319    7.4861 C.ar    1  UNL1        0.0006
     29 C          62.7039   83.9809    6.2729 C.ar    1  UNL1        0.0114
     30 C          61.3107   84.4228    5.9358 C.ar    1  UNL1        0.0574
     31 CL         60.6220   83.8718    4.7226 Cl      1  UNL1       -0.0823
     32 C          60.6063   85.4159    6.8119 C.ar    1  UNL1        0.0088
     33 C          59.0929   87.0428    8.8871 C.3     1  UNL1        0.1614
     34 O          58.3835   87.5978    7.6876 O.3     1  UNL1       -0.3799
     35 H          58.5989   88.5387    7.5912 H       1  UNL1        0.2105
@<TRIPOS>BOND
     1    10    11    1
     2    11    12   ar
     3    12    13   ar
     4    13    14   ar
     5    14    17    1
     6    17    19    1
     7    19    20   ar
     8    20    21   ar
     9    21    22   ar
    10    22    23   ar
    11    23    24    1
    12    14    15   ar
    13    15    16   ar
    14    16     1    1
    15     1     2   ar
    16     2     3   ar
    17     3     4   ar
    18     4     5   ar
    19     4     6   am
    20     6     7    2
    21     6     8   am
    22     8    25    1
    23    25    33    1
    24    33    34    1
    25    25    26    1
    26    26    27   ar
    27    27    28   ar
    28    28    29   ar
    29    29    30   ar
    30    30    31    1
    31    30    32   ar
    32     8     9    1
    33    16    11   ar
    34     5     1   ar
    35    32    26   ar
    36    23    19   ar
    37     9     3    1
    38    17    18    1
    39    34    35    1
@<TRIPOS>MOLECULE
*****
 35 39 0 0 0
SMALL
GASTEIGER

@<TRIPOS>ATOM
      1 C          64.6932   91.5654   12.3084 C.ar    1  UNL1        0.0363
      2 C          63.9322   91.4141   11.0247 C.ar    1  UNL1        0.0179
      3 C          63.3526   90.0311   10.9897 C.ar    1  UNL1        0.0657
      4 N          63.7553   89.3276   12.2518 N.ar    1  UNL1       -0.2630
      5 C          64.5839   90.2759   13.0668 C.ar    1  UNL1        0.0854
      6 C          63.1757   87.9446   12.2168 C.2     1  UNL1        0.3236
      7 O          63.3299   86.8968   13.2791 O.2     1  UNL1       -0.2489
      8 N          62.4146   87.7933   10.9331 N.am    1  UNL1       -0.2514
      9 C          62.5240   89.0828   10.1747 C.3     1  UNL1        0.1398
     10 C          66.0916   91.5888   14.9625 C.3     1  UNL1        0.0342
     11 C          66.1327   92.8027   14.0823 C.ar    1  UNL1        0.0151
     12 C          66.8731   94.0284   14.5292 C.ar    1  UNL1        0.0990
     13 N          66.9143   95.2423   13.6490 N.ar    1  UNL1       -0.2123
     14 C          66.2151   95.2306   12.3220 C.ar    1  UNL1        0.2217
     15 N          65.4748   94.0049   11.8752 N.ar    1  UNL1       -0.2138
     16 C          65.4336   92.7910   12.7553 C.ar    1  UNL1        0.0832
     17 N          66.2563   96.4445   11.4418 N.pl3   1  UNL1       -0.2681
     18 H          66.1521   97.3412   11.8347 H       1  UNL1        0.1565
     19 C          66.4561   96.2923    9.9630 C.ar    1  UNL1        0.1328
     20 C          67.7401   95.9247    9.2800 C.ar    1  UNL1        0.0565
     21 C          67.4846   95.8862    7.8025 C.ar    1  UNL1        0.1230
     22 N          66.0428   96.2299    7.5723 N.ar    1  UNL1       -0.1665
     23 N          65.4071   96.4809    8.9076 N.ar    1  UNL1       -0.2355
     24 C          63.9741   96.8548    9.1456 C.3     1  UNL1        0.1552
     25 C          61.6743   86.5677   10.4862 C.3     1  UNL1        0.1292
     26 C          62.3172   85.2177   10.6060 C.ar    1  UNL1       -0.0009
     27 C          63.2032   84.7088    9.5079 C.ar    1  UNL1       -0.0025
     28 C          63.8460   83.3588    9.6277 C.ar    1  UNL1        0.0006
     29 C          63.6028   82.5178   10.8457 C.ar    1  UNL1        0.0114
     30 C          62.7168   83.0267   11.9438 C.ar    1  UNL1        0.0574
     31 CL         62.4736   82.1857   13.1618 Cl      1  UNL1       -0.0823
     32 C          62.0740   84.3767   11.8240 C.ar    1  UNL1        0.0088
     33 C          60.2910   86.6920    9.9195 C.3     1  UNL1        0.1614
     34 O          60.0010   86.1973    8.5334 O.3     1  UNL1       -0.3799
     35 H          60.4889   86.7345    7.8897 H       1  UNL1        0.2105
@<TRIPOS>BOND
     1    10    11    1
     2    11    12   ar
     3    12    13   ar
     4    13    14   ar
     5    14    17    1
     6    17    19    1
     7    19    20   ar
     8    20    21   ar
     9    21    22   ar
    10    22    23   ar
    11    23    24    1
    12    14    15   ar
    13    15    16   ar
    14    16     1    1
    15     1     2   ar
    16     2     3   ar
    17     3     4   ar
    18     4     5   ar
    19     4     6   am
    20     6     7    2
    21     6     8   am
    22     8    25    1
    23    25    33    1
    24    33    34    1
    25    25    26    1
    26    26    27   ar
    27    27    28   ar
    28    28    29   ar
    29    29    30   ar
    30    30    31    1
    31    30    32   ar
    32     8     9    1
    33    16    11   ar
    34     5     1   ar
    35    32    26   ar
    36    23    19   ar
    37     9     3    1
    38    17    18    1
    39    34    35    1
@<TRIPOS>MOLECULE
*****
 35 39 0 0 0
SMALL
GASTEIGER

@<TRIPOS>ATOM
      1 C          64.0588   88.5255   14.3805 C.ar    1  UNL1        0.0363
      2 C          64.6269   87.2013   14.7974 C.ar    1  UNL1        0.0179
      3 C          64.2491   86.1872   13.7587 C.ar    1  UNL1        0.0657
      4 N          63.4475   86.8846   12.6998 N.ar    1  UNL1       -0.2630
      5 C          63.3299   88.3298   13.0841 C.ar    1  UNL1        0.0854
      6 C          63.0698   85.8705   11.6611 C.2     1  UNL1        0.3236
      7 O          62.2652   86.1343   10.4229 O.2     1  UNL1       -0.2489
      8 N          63.6379   84.5463   12.0780 N.am    1  UNL1       -0.2514
      9 C          64.3667   84.7421   13.3744 C.3     1  UNL1        0.1398
     10 C          62.6149   88.9137   16.9814 C.3     1  UNL1        0.0342
     11 C          63.4736   90.0125   16.4290 C.ar    1  UNL1        0.0151
     12 C          63.6104   91.3055   17.1770 C.ar    1  UNL1        0.0990
     13 N          64.4690   92.4043   16.6247 N.ar    1  UNL1       -0.2123
     14 C          65.1910   92.2103   15.3242 C.ar    1  UNL1        0.2217
     15 N          65.0542   90.9173   14.5762 N.ar    1  UNL1       -0.2138
     16 C          64.1955   89.8184   15.1285 C.ar    1  UNL1        0.0832
     17 N          66.0497   93.3091   14.7718 N.pl3   1  UNL1       -0.2681
     18 H          65.6334   94.0852   14.3318 H       1  UNL1        0.1565
     19 C          67.5427   93.2255   14.8898 C.ar    1  UNL1        0.1328
     20 C          68.3797   93.8631   15.9589 C.ar    1  UNL1        0.0565
     21 C          69.8151   93.5213   15.6892 C.ar    1  UNL1        0.1230
     22 N          69.8653   92.6726   14.4534 N.ar    1  UNL1       -0.1665
     23 N          68.4608   92.4898   13.9593 N.ar    1  UNL1       -0.2355
     24 C          68.0471   91.7084   12.7476 C.3     1  UNL1        0.1552
     25 C          63.5011   83.2534   11.3300 C.3     1  UNL1        0.1292
     26 C          62.9606   82.0386   12.0244 C.ar    1  UNL1       -0.0009
     27 C          62.3408   82.1656   13.3843 C.ar    1  UNL1       -0.0025
     28 C          61.8003   80.9508   14.0787 C.ar    1  UNL1        0.0006
     29 C          61.8796   79.6090   13.4130 C.ar    1  UNL1        0.0114
     30 C          62.4995   79.4819   12.0530 C.ar    1  UNL1        0.0574
     31 CL         62.5788   78.1401   11.3873 Cl      1  UNL1       -0.0823
     32 C          63.0400   80.6968   11.3586 C.ar    1  UNL1        0.0088
     33 C          63.9049   83.1752    9.8874 C.3     1  UNL1        0.1614
     34 O          63.1999   84.0159    8.8646 O.3     1  UNL1       -0.3799
     35 H          62.2765   83.7283    8.7904 H       1  UNL1        0.2105
@<TRIPOS>BOND
     1    10    11    1
     2    11    12   ar
     3    12    13   ar
     4    13    14   ar
     5    14    17    1
     6    17    19    1
     7    19    20   ar
     8    20    21   ar
     9    21    22   ar
    10    22    23   ar
    11    23    24    1
    12    14    15   ar
    13    15    16   ar
    14    16     1    1
    15     1     2   ar
    16     2     3   ar
    17     3     4   ar
    18     4     5   ar
    19     4     6   am
    20     6     7    2
    21     6     8   am
    22     8    25    1
    23    25    33    1
    24    33    34    1
    25    25    26    1
    26    26    27   ar
    27    27    28   ar
    28    28    29   ar
    29    29    30   ar
    30    30    31    1
    31    30    32   ar
    32     8     9    1
    33    16    11   ar
    34     5     1   ar
    35    32    26   ar
    36    23    19   ar
    37     9     3    1
    38    17    18    1
    39    34    35    1
