@<TRIPOS>MOLECULE
*****
 31 34 0 0 0
SMALL
GASTEIGER

@<TRIPOS>ATOM
      1 C          62.5139   86.7150   18.6403 C.3     1  UNL1        0.0518
      2 C          62.9486   87.1781   17.2813 C.ar    1  UNL1        0.0568
      3 N          63.2388   88.6301   17.0412 N.ar    1  UNL1       -0.2456
      4 C          63.6735   89.0932   15.6823 C.ar    1  UNL1        0.1322
      5 C          63.8180   88.1044   14.5636 C.ar    1  UNL1        0.0200
      6 C          63.5278   86.6525   14.8038 C.ar    1  UNL1       -0.0015
      7 C          63.0931   86.1894   16.1628 C.ar    1  UNL1        0.0068
      8 C          64.2607   88.8504   13.3399 C.3     1  UNL1        0.1267
      9 N          64.3898   90.3002   13.7023 N.am    1  UNL1       -0.2496
     10 C          64.0269   90.4503   15.1499 C.2     1  UNL1        0.2705
     11 O          64.0188   91.7324   15.9285 O.2     1  UNL1       -0.2679
     12 C          63.6723   85.6636   13.6851 C.ar    1  UNL1        0.0102
     13 C          62.6507   85.6182   12.5878 C.ar    1  UNL1        0.0017
     14 C          62.7951   84.6294   11.4691 C.ar    1  UNL1        0.0114
     15 C          63.9611   83.6861   11.4479 C.ar    1  UNL1        0.0585
     16 CL         64.1055   82.6973   10.3292 Cl      1  UNL1       -0.0822
     17 C          64.9827   83.7315   12.5453 C.ar    1  UNL1        0.0228
     18 C          64.8383   84.7203   13.6639 C.ar    1  UNL1        0.0585
     19 CL         65.8599   84.7658   14.7613 Cl      1  UNL1       -0.0822
     20 C          64.8083   91.4059   12.7790 C.ar    1  UNL1        0.0545
     21 C          64.2056   91.5077   11.4092 C.ar    1  UNL1        0.0156
     22 C          64.6242   92.6135   10.4861 C.ar    1  UNL1        0.0116
     23 C          65.6454   93.6173   10.9327 C.ar    1  UNL1        0.0685
     24 C          66.2481   93.5154   12.3025 C.ar    1  UNL1        0.0116
     25 C          65.8295   92.4097   13.2256 C.ar    1  UNL1        0.0156
     26 C          66.0639   94.7230   10.0094 C.1     1  UNL1        0.1004
     27 N          66.4825   95.8286    9.0863 N.1     1  UNL1       -0.1908
     28 C          62.8029   84.7374   16.4030 C.3     1  UNL1        0.0934
     29 N          61.8378   84.0087   15.5156 N.3     1  UNL1       -0.3174
     30 H          60.9017   84.3932   15.6431 H       1  UNL1        0.1192
     31 H          61.8344   83.0179   15.7582 H       1  UNL1        0.1192
@<TRIPOS>BOND
     1     1     2    1
     2     2     3   ar
     3     3     4   ar
     4     4     5   ar
     5     5     6   ar
     6     6    12    1
     7    12    13   ar
     8    13    14   ar
     9    14    15   ar
    10    15    16    1
    11    15    17   ar
    12    17    18   ar
    13    18    19    1
    14     6     7   ar
    15     7    28    1
    16    28    29    1
    17     5     8    1
    18     8     9    1
    19     9    20    1
    20    20    21   ar
    21    21    22   ar
    22    22    23   ar
    23    23    26    1
    24    26    27    3
    25    23    24   ar
    26    24    25   ar
    27     9    10   am
    28    10    11    2
    29     7     2   ar
    30    25    20   ar
    31    10     4    1
    32    18    12   ar
    33    29    30    1
    34    29    31    1
@<TRIPOS>MOLECULE
*****
 31 34 0 0 0
SMALL
GASTEIGER

@<TRIPOS>ATOM
      1 C          58.9619   88.2413    7.3998 C.3     1  UNL1        0.0518
      2 C          60.0480   88.2353    8.4344 C.ar    1  UNL1        0.0568
      3 N          60.5541   89.5300    8.9979 N.ar    1  UNL1       -0.2456
      4 C          61.6402   89.5241   10.0325 C.ar    1  UNL1        0.1322
      5 C          62.2202   88.2235   10.5036 C.ar    1  UNL1        0.0200
      6 C          61.7141   86.9288    9.9401 C.ar    1  UNL1       -0.0015
      7 C          60.6280   86.9347    8.9055 C.ar    1  UNL1        0.0068
      8 C          63.2737   88.5292   11.5266 C.3     1  UNL1        0.1267
      9 N          63.3448   90.0188   11.6878 N.am    1  UNL1       -0.2496
     10 C          62.3353   90.6337   10.7644 C.2     1  UNL1        0.2705
     11 O          62.0677   92.1007   10.6015 O.2     1  UNL1       -0.2679
     12 C          62.2941   85.6280   10.4111 C.ar    1  UNL1        0.0102
     13 C          61.9957   85.1312   11.7946 C.ar    1  UNL1        0.0017
     14 C          62.5756   83.8305   12.2658 C.ar    1  UNL1        0.0114
     15 C          63.4539   83.0267   11.3533 C.ar    1  UNL1        0.0585
     16 CL         64.0338   81.7261   11.8245 Cl      1  UNL1       -0.0822
     17 C          63.7523   83.5236    9.9698 C.ar    1  UNL1        0.0228
     18 C          63.1724   84.8243    9.4987 C.ar    1  UNL1        0.0585
     19 CL         63.4708   85.3212    8.1152 Cl      1  UNL1       -0.0822
     20 C          64.2641   90.7629   12.6105 C.ar    1  UNL1        0.0545
     21 C          64.9976   91.9761   12.1205 C.ar    1  UNL1        0.0156
     22 C          65.9169   92.7202   13.0432 C.ar    1  UNL1        0.0116
     23 C          66.1026   92.2511   14.4558 C.ar    1  UNL1        0.0685
     24 C          65.3690   91.0380   14.9458 C.ar    1  UNL1        0.0116
     25 C          64.4497   90.2939   14.0231 C.ar    1  UNL1        0.0156
     26 C          67.0218   92.9952   15.3785 C.1     1  UNL1        0.1004
     27 N          67.9411   93.7393   16.3010 N.1     1  UNL1       -0.1908
     28 C          60.1218   85.6399    8.3420 C.3     1  UNL1        0.0934
     29 N          60.3606   85.3055    6.8993 N.3     1  UNL1       -0.3174
     30 H          59.8479   85.9606    6.3091 H       1  UNL1        0.1192
     31 H          60.0387   84.3559    6.7127 H       1  UNL1        0.1192
@<TRIPOS>BOND
     1     1     2    1
     2     2     3   ar
     3     3     4   ar
     4     4     5   ar
     5     5     6   ar
     6     6    12    1
     7    12    13   ar
     8    13    14   ar
     9    14    15   ar
    10    15    16    1
    11    15    17   ar
    12    17    18   ar
    13    18    19    1
    14     6     7   ar
    15     7    28    1
    16    28    29    1
    17     5     8    1
    18     8     9    1
    19     9    20    1
    20    20    21   ar
    21    21    22   ar
    22    22    23   ar
    23    23    26    1
    24    26    27    3
    25    23    24   ar
    26    24    25   ar
    27     9    10   am
    28    10    11    2
    29     7     2   ar
    30    25    20   ar
    31    10     4    1
    32    18    12   ar
    33    29    30    1
    34    29    31    1
@<TRIPOS>MOLECULE
*****
 31 34 0 0 0
SMALL
GASTEIGER

@<TRIPOS>ATOM
      1 C          58.9311   88.1618    7.2600 C.3     1  UNL1        0.0518
      2 C          60.0197   88.1491    8.2919 C.ar    1  UNL1        0.0568
      3 N          60.4535   89.4303    8.9402 N.ar    1  UNL1       -0.2456
      4 C          61.5421   89.4177    9.9720 C.ar    1  UNL1        0.1322
      5 C          62.1970   88.1239   10.3556 C.ar    1  UNL1        0.0200
      6 C          61.7632   86.8426    9.7074 C.ar    1  UNL1       -0.0015
      7 C          60.6745   86.8553    8.6755 C.ar    1  UNL1        0.0068
      8 C          63.2353   88.4206   11.3967 C.3     1  UNL1        0.1267
      9 N          63.2222   89.8979   11.6565 N.am    1  UNL1       -0.2496
     10 C          62.1757   90.5141   10.7760 C.2     1  UNL1        0.2705
     11 O          61.8246   91.9710   10.7110 O.2     1  UNL1       -0.2679
     12 C          62.4180   85.5487   10.0910 C.ar    1  UNL1        0.0102
     13 C          63.2407   84.7979    9.0863 C.ar    1  UNL1        0.0017
     14 C          63.8955   83.5040    9.4698 C.ar    1  UNL1        0.0114
     15 C          63.7276   82.9610   10.8579 C.ar    1  UNL1        0.0585
     16 CL         64.3824   81.6671   11.2414 Cl      1  UNL1       -0.0822
     17 C          62.9048   83.7118   11.8626 C.ar    1  UNL1        0.0228
     18 C          62.2500   85.0057   11.4791 C.ar    1  UNL1        0.0585
     19 CL         61.4272   85.7566   12.4837 Cl      1  UNL1       -0.0822
     20 C          64.1011   90.6303   12.6265 C.ar    1  UNL1        0.0545
     21 C          64.8812   91.8290   12.1743 C.ar    1  UNL1        0.0156
     22 C          65.7602   92.5614   13.1444 C.ar    1  UNL1        0.0116
     23 C          65.8591   92.0952   14.5667 C.ar    1  UNL1        0.0685
     24 C          65.0789   90.8965   15.0189 C.ar    1  UNL1        0.0116
     25 C          64.2000   90.1641   14.0488 C.ar    1  UNL1        0.0156
     26 C          66.7380   92.8277   15.5367 C.1     1  UNL1        0.1004
     27 N          67.6170   93.5601   16.5066 N.1     1  UNL1       -0.1908
     28 C          60.2407   85.5740    8.0272 C.3     1  UNL1        0.0934
     29 N          60.6898   85.2491    6.6334 N.3     1  UNL1       -0.3174
     30 H          60.2816   85.9177    5.9801 H       1  UNL1        0.1192
     31 H          60.3860   84.3064    6.3894 H       1  UNL1        0.1192
@<TRIPOS>BOND
     1     1     2    1
     2     2     3   ar
     3     3     4   ar
     4     4     5   ar
     5     5     6   ar
     6     6    12    1
     7    12    13   ar
     8    13    14   ar
     9    14    15   ar
    10    15    16    1
    11    15    17   ar
    12    17    18   ar
    13    18    19    1
    14     6     7   ar
    15     7    28    1
    16    28    29    1
    17     5     8    1
    18     8     9    1
    19     9    20    1
    20    20    21   ar
    21    21    22   ar
    22    22    23   ar
    23    23    26    1
    24    26    27    3
    25    23    24   ar
    26    24    25   ar
    27     9    10   am
    28    10    11    2
    29     7     2   ar
    30    25    20   ar
    31    10     4    1
    32    18    12   ar
    33    29    30    1
    34    29    31    1
@<TRIPOS>MOLECULE
*****
 31 34 0 0 0
SMALL
GASTEIGER

@<TRIPOS>ATOM
      1 C          62.9235   84.4520   15.8659 C.3     1  UNL1        0.0518
      2 C          63.0974   85.5074   14.8142 C.ar    1  UNL1        0.0568
      3 N          63.6877   86.8377   15.1773 N.ar    1  UNL1       -0.2456
      4 C          63.8616   87.8932   14.1257 C.ar    1  UNL1        0.1322
      5 C          63.4452   87.6183   12.7111 C.ar    1  UNL1        0.0200
      6 C          62.8549   86.2880   12.3481 C.ar    1  UNL1       -0.0015
      7 C          62.6811   85.2325   13.3997 C.ar    1  UNL1        0.0068
      8 C          63.7362   88.8434   11.8959 C.3     1  UNL1        0.1267
      9 N          64.3324   89.8753   12.8067 N.am    1  UNL1       -0.2496
     10 C          64.4099   89.2881   14.1848 C.2     1  UNL1        0.2705
     11 O          64.9423   89.9752   15.4072 O.2     1  UNL1       -0.2679
     12 C          62.4385   86.0131   10.9335 C.ar    1  UNL1        0.0102
     13 C          63.2657   85.1064   10.0710 C.ar    1  UNL1        0.0017
     14 C          62.8493   84.8314    8.6564 C.ar    1  UNL1        0.0114
     15 C          61.6058   85.4631    8.1044 C.ar    1  UNL1        0.0585
     16 CL         61.1895   85.1881    6.6898 Cl      1  UNL1       -0.0822
     17 C          60.7787   86.3697    8.9669 C.ar    1  UNL1        0.0228
     18 C          61.1951   86.6447   10.3814 C.ar    1  UNL1        0.0585
     19 CL         60.3679   87.5513   11.2439 Cl      1  UNL1       -0.0822
     20 C          64.7736   91.2528   12.4092 C.ar    1  UNL1        0.0545
     21 C          65.5999   92.0768   13.3516 C.ar    1  UNL1        0.0156
     22 C          66.0410   93.4543   12.9540 C.ar    1  UNL1        0.0116
     23 C          65.6560   94.0077   11.6140 C.ar    1  UNL1        0.0685
     24 C          64.8297   93.1836   10.6716 C.ar    1  UNL1        0.0116
     25 C          64.3885   91.8062   11.0692 C.ar    1  UNL1        0.0156
     26 C          66.0972   95.3851   11.2165 C.1     1  UNL1        0.1004
     27 N          66.5384   96.7625   10.8191 N.1     1  UNL1       -0.1908
     28 C          62.0907   83.9021   13.0367 C.3     1  UNL1        0.0934
     29 N          62.9465   82.6705   13.0598 N.3     1  UNL1       -0.3174
     30 H          63.6641   82.7414   12.3383 H       1  UNL1        0.1192
     31 H          62.3666   81.8502   12.8831 H       1  UNL1        0.1192
@<TRIPOS>BOND
     1     1     2    1
     2     2     3   ar
     3     3     4   ar
     4     4     5   ar
     5     5     6   ar
     6     6    12    1
     7    12    13   ar
     8    13    14   ar
     9    14    15   ar
    10    15    16    1
    11    15    17   ar
    12    17    18   ar
    13    18    19    1
    14     6     7   ar
    15     7    28    1
    16    28    29    1
    17     5     8    1
    18     8     9    1
    19     9    20    1
    20    20    21   ar
    21    21    22   ar
    22    22    23   ar
    23    23    26    1
    24    26    27    3
    25    23    24   ar
    26    24    25   ar
    27     9    10   am
    28    10    11    2
    29     7     2   ar
    30    25    20   ar
    31    10     4    1
    32    18    12   ar
    33    29    30    1
    34    29    31    1
