@<TRIPOS>MOLECULE
*****
 21 23 0 0 0
SMALL
GASTEIGER

@<TRIPOS>ATOM
      1 C          65.0369   91.9797   11.8437 C.ar    1  UNL1        0.0253
      2 C          63.8343   91.4065   11.1545 C.ar    1  UNL1        0.0993
      3 N          62.9320   90.4575   11.8860 N.ar    1  UNL1       -0.2423
      4 C          63.2323   90.0818   13.3068 C.ar    1  UNL1        0.0989
      5 C          64.4349   90.6550   13.9961 C.ar    1  UNL1        0.0208
      6 C          65.3372   91.6040   13.2645 C.ar    1  UNL1        0.0065
      7 C          66.5399   92.1772   13.9537 C.ar    1  UNL1        0.0385
      8 C          67.9175   91.8135   13.4847 C.ar    1  UNL1        0.1022
      9 N          69.1202   92.3867   14.1739 N.ar    1  UNL1       -0.2224
     10 C          68.9453   93.3237   15.3321 C.ar    1  UNL1        0.1989
     11 N          67.5677   93.6875   15.8011 N.ar    1  UNL1       -0.2224
     12 C          66.3650   93.1142   15.1119 C.ar    1  UNL1        0.1022
     13 C          66.9404   94.9694   10.2613 C.ar    1  UNL1        0.0230
     14 C          67.7154   93.8087    9.7115 C.ar    1  UNL1        0.0040
     15 C          67.0967   92.5476   10.2374 C.ar    1  UNL1        0.0067
     16 C          65.9393   92.9288   11.1122 C.ar    1  UNL1        0.0307
     17 S          65.8428   94.4256   11.1269 S.2     1  UNL1       -0.0899
     18 N          67.7888   96.8421    8.6728 N.3     1  UNL1       -0.3170
     19 C          67.2150   96.4194    9.9926 C.3     1  UNL1        0.0987
     20 H          67.9097   97.8549    8.6633 H       1  UNL1        0.1192
     21 H          67.1540   96.5684    7.9228 H       1  UNL1        0.1192
@<TRIPOS>BOND
     1    18    19    1
     2    19    13    1
     3    13    14   ar
     4    14    15   ar
     5    15    16   ar
     6    16     1    1
     7     1     2   ar
     8     2     3   ar
     9     3     4   ar
    10     4     5   ar
    11     5     6   ar
    12     6     7    1
    13     7     8   ar
    14     8     9   ar
    15     9    10   ar
    16    10    11   ar
    17    11    12   ar
    18    16    17   ar
    19    17    13   ar
    20     6     1   ar
    21    12     7   ar
    22    18    20    1
    23    18    21    1
@<TRIPOS>MOLECULE
*****
 21 23 0 0 0
SMALL
GASTEIGER

@<TRIPOS>ATOM
      1 C          64.9633   91.8033   12.3882 C.ar    1  UNL1        0.0253
      2 C          63.8037   91.1220   11.7239 C.ar    1  UNL1        0.0993
      3 N          63.1384   89.9541   12.3897 N.ar    1  UNL1       -0.2423
      4 C          63.6327   89.4674   13.7196 C.ar    1  UNL1        0.0989
      5 C          64.7922   90.1487   14.3839 C.ar    1  UNL1        0.0208
      6 C          65.4575   91.3166   13.7182 C.ar    1  UNL1        0.0065
      7 C          66.6171   91.9980   14.3824 C.ar    1  UNL1        0.0385
      8 C          66.4040   92.7832   15.6426 C.ar    1  UNL1        0.1022
      9 N          67.5636   93.4645   16.3068 N.ar    1  UNL1       -0.2224
     10 C          68.9363   93.3606   15.7110 C.ar    1  UNL1        0.1989
     11 N          69.1493   92.5753   14.4508 N.ar    1  UNL1       -0.2224
     12 C          67.9897   91.8940   13.7866 C.ar    1  UNL1        0.1022
     13 C          66.7370   94.3639   10.0724 C.ar    1  UNL1        0.0230
     14 C          66.5679   95.1735   11.3239 C.ar    1  UNL1        0.0040
     15 C          65.8829   94.3128   12.3437 C.ar    1  UNL1        0.0067
     16 C          65.6286   92.9713   11.7225 C.ar    1  UNL1        0.0307
     17 S          66.1565   93.0030   10.3188 S.2     1  UNL1       -0.0899
     18 N          66.5372   95.4765    7.7331 N.3     1  UNL1       -0.3170
     19 C          67.3746   94.8330    8.7983 C.3     1  UNL1        0.0987
     20 H          67.1294   95.7315    6.9428 H       1  UNL1        0.1192
     21 H          66.0932   96.3142    8.1094 H       1  UNL1        0.1192
@<TRIPOS>BOND
     1    18    19    1
     2    19    13    1
     3    13    14   ar
     4    14    15   ar
     5    15    16   ar
     6    16     1    1
     7     1     2   ar
     8     2     3   ar
     9     3     4   ar
    10     4     5   ar
    11     5     6   ar
    12     6     7    1
    13     7     8   ar
    14     8     9   ar
    15     9    10   ar
    16    10    11   ar
    17    11    12   ar
    18    16    17   ar
    19    17    13   ar
    20     6     1   ar
    21    12     7   ar
    22    18    20    1
    23    18    21    1
@<TRIPOS>MOLECULE
*****
 21 23 0 0 0
SMALL
GASTEIGER

@<TRIPOS>ATOM
      1 C          64.5242   90.3824   13.8647 C.ar    1  UNL1        0.0253
      2 C          65.6783   91.2731   14.2179 C.ar    1  UNL1        0.0993
      3 N          66.1360   92.3259   13.2525 N.ar    1  UNL1       -0.2423
      4 C          65.4396   92.4880   11.9339 C.ar    1  UNL1        0.0989
      5 C          64.2855   91.5973   11.5807 C.ar    1  UNL1        0.0208
      6 C          63.8279   90.5445   12.5461 C.ar    1  UNL1        0.0065
      7 C          62.6737   89.6538   12.1929 C.ar    1  UNL1        0.0385
      8 C          61.2669   90.1360   12.3886 C.ar    1  UNL1        0.1022
      9 N          60.1128   89.2453   12.0354 N.ar    1  UNL1       -0.2224
     10 C          60.3656   87.8724   11.4865 C.ar    1  UNL1        0.1989
     11 N          61.7724   87.3901   11.2908 N.ar    1  UNL1       -0.2224
     12 C          62.9265   88.2809   11.6440 C.ar    1  UNL1        0.1022
     13 C          63.6894   87.1816   15.8954 C.ar    1  UNL1        0.0230
     14 C          63.0347   88.2373   16.7362 C.ar    1  UNL1        0.0040
     15 C          63.2677   89.5648   16.0779 C.ar    1  UNL1        0.0067
     16 C          64.0665   89.3295   14.8302 C.ar    1  UNL1        0.0307
     17 S          64.3271   87.8567   14.7174 S.2     1  UNL1       -0.0899
     18 N          64.6633   84.8133   15.4565 N.3     1  UNL1       -0.3170
     19 C          63.7039   85.7093   16.1822 C.3     1  UNL1        0.0987
     20 H          64.5363   83.8519   15.7730 H       1  UNL1        0.1192
     21 H          65.6194   85.1113   15.6497 H       1  UNL1        0.1192
@<TRIPOS>BOND
     1    18    19    1
     2    19    13    1
     3    13    14   ar
     4    14    15   ar
     5    15    16   ar
     6    16     1    1
     7     1     2   ar
     8     2     3   ar
     9     3     4   ar
    10     4     5   ar
    11     5     6   ar
    12     6     7    1
    13     7     8   ar
    14     8     9   ar
    15     9    10   ar
    16    10    11   ar
    17    11    12   ar
    18    16    17   ar
    19    17    13   ar
    20     6     1   ar
    21    12     7   ar
    22    18    20    1
    23    18    21    1
@<TRIPOS>MOLECULE
*****
 21 23 0 0 0
SMALL
GASTEIGER

@<TRIPOS>ATOM
      1 C          63.8861   91.0409   11.8120 C.ar    1  UNL1        0.0253
      2 C          64.3443   91.8945   10.6669 C.ar    1  UNL1        0.0993
      3 N          65.5234   92.8061   10.8359 N.ar    1  UNL1       -0.2423
      4 C          66.2444   92.8640   12.1500 C.ar    1  UNL1        0.0989
      5 C          65.7862   92.0104   13.2951 C.ar    1  UNL1        0.0208
      6 C          64.6071   91.0988   13.1261 C.ar    1  UNL1        0.0065
      7 C          64.1489   90.2451   14.2713 C.ar    1  UNL1        0.0385
      8 C          64.2776   88.7528   14.1927 C.ar    1  UNL1        0.1022
      9 N          63.8195   87.8991   15.3378 N.ar    1  UNL1       -0.2224
     10 C          63.2324   88.5378   16.5615 C.ar    1  UNL1        0.1989
     11 N          63.1036   90.0302   16.6401 N.ar    1  UNL1       -0.2224
     12 C          63.5619   90.8839   15.4950 C.ar    1  UNL1        0.1022
     13 C          60.4510   89.2366   11.7108 C.ar    1  UNL1        0.0230
     14 C          61.3338   88.2161   11.0555 C.ar    1  UNL1        0.0040
     15 C          62.7280   88.7678   11.0137 C.ar    1  UNL1        0.0067
     16 C          62.7069   90.1292   11.6431 C.ar    1  UNL1        0.0307
     17 S          61.2996   90.4189   12.0739 S.2     1  UNL1       -0.0899
     18 N          58.4855   88.5694   13.2734 N.3     1  UNL1       -0.3170
     19 C          58.9781   89.0989   11.9593 C.3     1  UNL1        0.0987
     20 H          57.4658   88.5434   13.2688 H       1  UNL1        0.1192
     21 H          58.8067   89.1772   14.0269 H       1  UNL1        0.1192
@<TRIPOS>BOND
     1    18    19    1
     2    19    13    1
     3    13    14   ar
     4    14    15   ar
     5    15    16   ar
     6    16     1    1
     7     1     2   ar
     8     2     3   ar
     9     3     4   ar
    10     4     5   ar
    11     5     6   ar
    12     6     7    1
    13     7     8   ar
    14     8     9   ar
    15     9    10   ar
    16    10    11   ar
    17    11    12   ar
    18    16    17   ar
    19    17    13   ar
    20     6     1   ar
    21    12     7   ar
    22    18    20    1
    23    18    21    1
@<TRIPOS>MOLECULE
*****
 21 23 0 0 0
SMALL
GASTEIGER

@<TRIPOS>ATOM
      1 C          63.8246   91.0852   11.8119 C.ar    1  UNL1        0.0253
      2 C          64.2764   91.9575   10.6783 C.ar    1  UNL1        0.0993
      3 N          65.4766   92.8417   10.8446 N.ar    1  UNL1       -0.2423
      4 C          66.2251   92.8534   12.1445 C.ar    1  UNL1        0.0989
      5 C          65.7734   91.9811   13.2780 C.ar    1  UNL1        0.0208
      6 C          64.5732   91.0970   13.1117 C.ar    1  UNL1        0.0065
      7 C          64.1214   90.2246   14.2453 C.ar    1  UNL1        0.0385
      8 C          64.2871   88.7363   14.1584 C.ar    1  UNL1        0.1022
      9 N          63.8354   87.8639   15.2918 N.ar    1  UNL1       -0.2224
     10 C          63.2179   88.4798   16.5123 C.ar    1  UNL1        0.1989
     11 N          63.0521   89.9680   16.5992 N.ar    1  UNL1       -0.2224
     12 C          63.5039   90.8405   15.4656 C.ar    1  UNL1        0.1022
     13 C          61.2090   88.3133   11.0765 C.ar    1  UNL1        0.0230
     14 C          60.3455   89.3678   11.7030 C.ar    1  UNL1        0.0040
     15 C          61.2202   90.5344   12.0548 C.ar    1  UNL1        0.0067
     16 C          62.6243   90.2010   11.6456 C.ar    1  UNL1        0.0307
     17 S          62.6174   88.8283   11.0410 S.2     1  UNL1       -0.0899
     18 N          61.4790   85.7314   10.9705 N.3     1  UNL1       -0.3170
     19 C          60.7455   86.9782   10.5737 C.3     1  UNL1        0.0987
     20 H          61.0306   84.9220   10.5414 H       1  UNL1        0.1192
     21 H          61.4582   85.6332   11.9856 H       1  UNL1        0.1192
@<TRIPOS>BOND
     1    18    19    1
     2    19    13    1
     3    13    14   ar
     4    14    15   ar
     5    15    16   ar
     6    16     1    1
     7     1     2   ar
     8     2     3   ar
     9     3     4   ar
    10     4     5   ar
    11     5     6   ar
    12     6     7    1
    13     7     8   ar
    14     8     9   ar
    15     9    10   ar
    16    10    11   ar
    17    11    12   ar
    18    16    17   ar
    19    17    13   ar
    20     6     1   ar
    21    12     7   ar
    22    18    20    1
    23    18    21    1
@<TRIPOS>MOLECULE
*****
 21 23 0 0 0
SMALL
GASTEIGER

@<TRIPOS>ATOM
      1 C          60.7723   86.7581    8.9758 C.ar    1  UNL1        0.0253
      2 C          60.0651   86.1242    7.8148 C.ar    1  UNL1        0.0993
      3 N          59.1901   86.9560    6.9247 N.ar    1  UNL1       -0.2423
      4 C          59.0222   88.4217    7.1956 C.ar    1  UNL1        0.0989
      5 C          59.7294   89.0557    8.3566 C.ar    1  UNL1        0.0208
      6 C          60.6044   88.2239    9.2467 C.ar    1  UNL1        0.0065
      7 C          61.3117   88.8578   10.4078 C.ar    1  UNL1        0.0385
      8 C          60.5855   89.0705   11.7029 C.ar    1  UNL1        0.1022
      9 N          61.2927   89.7044   12.8640 N.ar    1  UNL1       -0.2224
     10 C          62.7261   90.1257   12.7299 C.ar    1  UNL1        0.1989
     11 N          63.4523   89.9131   11.4347 N.ar    1  UNL1       -0.2224
     12 C          62.7450   89.2791   10.2736 C.ar    1  UNL1        0.1022
     13 C          63.3511   84.3775   10.6336 C.ar    1  UNL1        0.0230
     14 C          62.6370   84.9153   11.8381 C.ar    1  UNL1        0.0040
     15 C          61.5841   85.8726   11.3637 C.ar    1  UNL1        0.0067
     16 C          61.6475   85.9263    9.8660 C.ar    1  UNL1        0.0307
     17 S          62.7395   85.0023    9.4148 S.2     1  UNL1       -0.0899
     18 N          64.9568   82.8119   11.9454 N.3     1  UNL1       -0.3170
     19 C          64.4788   83.3884   10.6457 C.3     1  UNL1        0.0987
     20 H          65.7230   82.1625   11.7679 H       1  UNL1        0.1192
     21 H          64.1898   82.3167   12.4003 H       1  UNL1        0.1192
@<TRIPOS>BOND
     1    18    19    1
     2    19    13    1
     3    13    14   ar
     4    14    15   ar
     5    15    16   ar
     6    16     1    1
     7     1     2   ar
     8     2     3   ar
     9     3     4   ar
    10     4     5   ar
    11     5     6   ar
    12     6     7    1
    13     7     8   ar
    14     8     9   ar
    15     9    10   ar
    16    10    11   ar
    17    11    12   ar
    18    16    17   ar
    19    17    13   ar
    20     6     1   ar
    21    12     7   ar
    22    18    20    1
    23    18    21    1
@<TRIPOS>MOLECULE
*****
 21 23 0 0 0
SMALL
GASTEIGER

@<TRIPOS>ATOM
      1 C          64.3158   90.9352   12.8667 C.ar    1  UNL1        0.0253
      2 C          64.8906   92.1201   12.1487 C.ar    1  UNL1        0.0993
      3 N          65.9211   92.9774   12.8218 N.ar    1  UNL1       -0.2423
      4 C          66.3767   92.6498   14.2128 C.ar    1  UNL1        0.0989
      5 C          65.8019   91.4649   14.9308 C.ar    1  UNL1        0.0208
      6 C          64.7714   90.6076   14.2577 C.ar    1  UNL1        0.0065
      7 C          64.1965   89.4226   14.9757 C.ar    1  UNL1        0.0385
      8 C          63.2008   89.6249   16.0792 C.ar    1  UNL1        0.1022
      9 N          62.6259   88.4401   16.7972 N.ar    1  UNL1       -0.2224
     10 C          63.0468   87.0528   16.4117 C.ar    1  UNL1        0.1989
     11 N          64.0425   86.8505   15.3083 N.ar    1  UNL1       -0.2224
     12 C          64.6174   88.0355   14.5903 C.ar    1  UNL1        0.1022
     13 C          61.3370   89.3737   10.9291 C.ar    1  UNL1        0.0230
     14 C          62.0622   88.1429   11.3866 C.ar    1  UNL1        0.0040
     15 C          63.2664   88.5781   12.1680 C.ar    1  UNL1        0.0067
     16 C          63.2853   90.0778   12.1936 C.ar    1  UNL1        0.0307
     17 S          62.0929   90.5695   11.4279 S.2     1  UNL1       -0.0899
     18 N          60.1502   89.5456    8.6243 N.3     1  UNL1       -0.3170
     19 C          60.0770   89.4035   10.1157 C.3     1  UNL1        0.0987
     20 H          59.2070   89.5473    8.2362 H       1  UNL1        0.1192
     21 H          60.6772   88.7645    8.2338 H       1  UNL1        0.1192
@<TRIPOS>BOND
     1    18    19    1
     2    19    13    1
     3    13    14   ar
     4    14    15   ar
     5    15    16   ar
     6    16     1    1
     7     1     2   ar
     8     2     3   ar
     9     3     4   ar
    10     4     5   ar
    11     5     6   ar
    12     6     7    1
    13     7     8   ar
    14     8     9   ar
    15     9    10   ar
    16    10    11   ar
    17    11    12   ar
    18    16    17   ar
    19    17    13   ar
    20     6     1   ar
    21    12     7   ar
    22    18    20    1
    23    18    21    1
@<TRIPOS>MOLECULE
*****
 21 23 0 0 0
SMALL
GASTEIGER

@<TRIPOS>ATOM
      1 C          63.0873   86.4466   12.2982 C.ar    1  UNL1        0.0253
      2 C          63.2572   87.7676   12.9880 C.ar    1  UNL1        0.0993
      3 N          64.0396   87.8518   14.2649 N.ar    1  UNL1       -0.2423
      4 C          64.6522   86.6148   14.8521 C.ar    1  UNL1        0.0989
      5 C          64.4823   85.2938   14.1623 C.ar    1  UNL1        0.0208
      6 C          63.6999   85.2096   12.8853 C.ar    1  UNL1        0.0065
      7 C          63.5300   83.8885   12.1955 C.ar    1  UNL1        0.0385
      8 C          62.4372   82.9542   12.6232 C.ar    1  UNL1        0.1022
      9 N          62.2673   81.6331   11.9334 N.ar    1  UNL1       -0.2224
     10 C          63.1901   81.2463   10.8158 C.ar    1  UNL1        0.1989
     11 N          64.2828   82.1807   10.3881 N.ar    1  UNL1       -0.2224
     12 C          64.4527   83.5018   11.0779 C.ar    1  UNL1        0.1022
     13 C          60.5677   86.6681    9.3540 C.ar    1  UNL1        0.0230
     14 C          61.6339   85.7974    8.7581 C.ar    1  UNL1        0.0040
     15 C          62.7075   85.6085    9.7885 C.ar    1  UNL1        0.0067
     16 C          62.3048   86.3624   11.0212 C.ar    1  UNL1        0.0307
     17 S          60.9823   87.0173   10.7527 S.2     1  UNL1       -0.0899
     18 N          58.7669   86.3279    7.5124 N.3     1  UNL1       -0.3170
     19 C          59.3079   87.1118    8.6712 C.3     1  UNL1        0.0987
     20 H          57.9119   86.7688    7.1732 H       1  UNL1        0.1192
     21 H          58.5619   85.3749    7.8128 H       1  UNL1        0.1192
@<TRIPOS>BOND
     1    18    19    1
     2    19    13    1
     3    13    14   ar
     4    14    15   ar
     5    15    16   ar
     6    16     1    1
     7     1     2   ar
     8     2     3   ar
     9     3     4   ar
    10     4     5   ar
    11     5     6   ar
    12     6     7    1
    13     7     8   ar
    14     8     9   ar
    15     9    10   ar
    16    10    11   ar
    17    11    12   ar
    18    16    17   ar
    19    17    13   ar
    20     6     1   ar
    21    12     7   ar
    22    18    20    1
    23    18    21    1
@<TRIPOS>MOLECULE
*****
 21 23 0 0 0
SMALL
GASTEIGER

@<TRIPOS>ATOM
      1 C          64.8102   91.7938   13.5201 C.ar    1  UNL1        0.0253
      2 C          64.2254   91.4136   14.8480 C.ar    1  UNL1        0.0993
      3 N          64.9192   91.8155   16.1157 N.ar    1  UNL1       -0.2423
      4 C          66.1977   92.5976   16.0555 C.ar    1  UNL1        0.0989
      5 C          66.7825   92.9778   14.7276 C.ar    1  UNL1        0.0208
      6 C          66.0888   92.5759   13.4599 C.ar    1  UNL1        0.0065
      7 C          66.6736   92.9561   12.1319 C.ar    1  UNL1        0.0385
      8 C          66.3682   94.2977   11.5344 C.ar    1  UNL1        0.1022
      9 N          66.9529   94.6779   10.2064 N.ar    1  UNL1       -0.2224
     10 C          67.8431   93.7166    9.4759 C.ar    1  UNL1        0.1989
     11 N          68.1485   92.3750   10.0735 N.ar    1  UNL1       -0.2224
     12 C          67.5637   91.9948   11.4015 C.ar    1  UNL1        0.1022
     13 C          62.7436   90.1865   10.6545 C.ar    1  UNL1        0.0230
     14 C          63.3543   91.3606    9.9482 C.ar    1  UNL1        0.0040
     15 C          64.2028   92.1055   10.9357 C.ar    1  UNL1        0.0067
     16 C          64.1165   91.3919   12.2523 C.ar    1  UNL1        0.0307
     17 S          63.2147   90.2059   12.0785 S.2     1  UNL1       -0.0899
     18 N          60.7009   89.6159    9.1540 N.3     1  UNL1       -0.3170
     19 C          61.8235   89.1714   10.0440 C.3     1  UNL1        0.0987
     20 H          60.1807   88.8006    8.8297 H       1  UNL1        0.1192
     21 H          61.0814   90.1176    8.3516 H       1  UNL1        0.1192
@<TRIPOS>BOND
     1    18    19    1
     2    19    13    1
     3    13    14   ar
     4    14    15   ar
     5    15    16   ar
     6    16     1    1
     7     1     2   ar
     8     2     3   ar
     9     3     4   ar
    10     4     5   ar
    11     5     6   ar
    12     6     7    1
    13     7     8   ar
    14     8     9   ar
    15     9    10   ar
    16    10    11   ar
    17    11    12   ar
    18    16    17   ar
    19    17    13   ar
    20     6     1   ar
    21    12     7   ar
    22    18    20    1
    23    18    21    1
