@<TRIPOS>MOLECULE
*****
 53 57 0 0 0
SMALL
GASTEIGER

@<TRIPOS>ATOM
      1 N          62.6103   85.3209    9.3789 N.am    1  UNL1       -0.2770
      2 C          61.6891   86.3431    9.9761 C.2     1  UNL1        0.2270
      3 O          61.7867   86.6795   11.4346 O.2     1  UNL1       -0.2748
      4 C          60.6704   87.0289    9.1148 C.3     1  UNL1        0.0964
      5 C          59.8006   86.2232    8.1959 C.3     1  UNL1        0.0780
      6 N          58.7819   86.9090    7.3346 N.3     1  UNL1       -0.2970
      7 C          58.6329   88.4004    7.3922 C.3     1  UNL1        0.0689
      8 C          59.5026   89.2062    8.3111 C.3     1  UNL1        0.0220
      9 C          60.5214   88.5204    9.1724 C.3     1  UNL1        0.0337
     10 H          57.8745   86.5128    7.5796 H       1  UNL1        0.1233
     11 C          61.3911   89.3261   10.0913 C.ar    1  UNL1       -0.0217
     12 C          62.6450   89.9634    9.5700 C.ar    1  UNL1       -0.0012
     13 C          63.5147   90.7691   10.4889 C.ar    1  UNL1        0.0366
     14 C          63.1307   90.9375   11.9291 C.ar    1  UNL1        0.1387
     15 C          61.8769   90.3002   12.4504 C.ar    1  UNL1        0.0366
     16 C          61.0071   89.4944   11.5315 C.ar    1  UNL1       -0.0012
     17 O          64.0004   91.7431   12.8480 O.3     1  UNL1       -0.4714
     18 C          65.3653   92.1760   12.4010 C.3     1  UNL1        0.2525
     19 C          65.9385   93.4729   12.8903 C.3     1  UNL1        0.2525
     20 O          67.0860   94.1078   12.1622 O.3     1  UNL1       -0.4697
     21 C          66.8534   94.7940   10.8487 C.ar    1  UNL1        0.1596
     22 C          66.2514   96.1674   10.8164 C.ar    1  UNL1        0.0921
     23 CL         65.8819   96.8548   12.0974 Cl      1  UNL1       -0.0791
     24 C          66.0188   96.8536    9.5029 C.ar    1  UNL1        0.0103
     25 C          66.3883   96.1663    8.2219 C.ar    1  UNL1       -0.0200
     26 C          66.1557   96.8524    6.9084 C.3     1  UNL1        0.0311
     27 C          66.9903   94.7927    8.2543 C.ar    1  UNL1        0.0103
     28 C          67.2229   94.1066    9.5677 C.ar    1  UNL1        0.0921
     29 CL         67.8250   92.7331    9.6001 Cl      1  UNL1       -0.0791
     30 C          62.5127   84.9845    7.9204 C.3     1  UNL1        0.0758
     31 C          63.1674   84.7965    6.5840 C.3     1  UNL1        0.0215
     32 C          61.6890   84.5900    6.7305 C.3     1  UNL1        0.0215
     33 C          63.6290   84.6351   10.2402 C.3     1  UNL1        0.1201
     34 C          62.5283   81.9155   12.9127 C.ar    1  UNL1       -0.0194
     35 C          62.9426   82.5387   11.6127 C.ar    1  UNL1       -0.0067
     36 C          63.2147   84.0120   11.5403 C.ar    1  UNL1        0.0004
     37 C          63.0724   84.8622   12.7678 C.ar    1  UNL1        0.0343
     38 C          62.6581   84.2390   14.0678 C.ar    1  UNL1        0.1380
     39 C          62.3860   82.7657   14.1402 C.ar    1  UNL1        0.0326
     40 O          62.5158   85.0892   15.2954 O.3     1  UNL1       -0.4755
     41 C          63.7374   85.5563   16.0299 C.3     1  UNL1        0.2058
     42 C          64.3944   86.8492   15.6467 C.3     1  UNL1        0.0525
     43 C          63.6616   88.1454   15.8275 C.3     1  UNL1        0.0357
     44 C          63.1240   87.6583   17.1404 C.3     1  UNL1        0.0057
     45 C          64.1991   88.6325   14.5146 C.3     1  UNL1        0.0057
     46 C          62.9287   89.4416   16.0084 C.2     1  UNL1        0.0498
     47 O          61.4300   89.4536   16.0701 O.co2   1  UNL1       -0.5492
     48 O          63.6945   90.7259   16.1275 O.co2   1  UNL1       -0.5492
     49 C          62.2562   80.4422   12.9851 C.3     1  UNL1        0.0290
     50 C          61.2292   79.9153   13.9430 C.3     1  UNL1        0.0367
     51 C          59.8546   80.5150   13.9735 C.3     1  UNL1        0.1426
     52 C          58.5749   78.3783   14.7131 C.3     1  UNL1        0.1741
     53 O          58.7701   79.8640   14.7798 O.3     1  UNL1       -0.3511
@<TRIPOS>UNITY_ATOM_ATTR
47 1
charge -1
@<TRIPOS>BOND
     1    52    53    1
     2    53    51    1
     3    51    50    1
     4    50    49    1
     5    49    34    1
     6    34    35   ar
     7    35    36   ar
     8    36    33    1
     9    33     1    1
    10     1     2   am
    11     2     3    2
    12     4     2    1
    13     4     5    1
    14     5     6    1
    15     6     7    1
    16     7     8    1
    17     8     9    1
    18     9    11    1
    19    11    12   ar
    20    12    13   ar
    21    13    14   ar
    22    14    17    1
    23    17    18    1
    24    18    19    1
    25    19    20    1
    26    20    21    1
    27    21    22   ar
    28    22    23    1
    29    22    24   ar
    30    24    25   ar
    31    25    26    1
    32    25    27   ar
    33    27    28   ar
    34    28    29    1
    35    14    15   ar
    36    15    16   ar
    37     1    30    1
    38    30    31    1
    39    31    32    1
    40    36    37   ar
    41    37    38   ar
    42    38    40    1
    43    40    41    1
    44    41    42    1
    45    42    43    1
    46    43    44    1
    47    43    45    1
    48    43    46    1
    49    46    47   ar
    50    46    48   ar
    51    38    39   ar
    52    39    34   ar
    53     9     4    1
    54    16    11   ar
    55    32    30    1
    56    28    21   ar
    57     6    10    1
@<TRIPOS>MOLECULE
*****
 53 57 0 0 0
SMALL
GASTEIGER

@<TRIPOS>ATOM
      1 N          62.7777   85.3802    9.1958 N.am    1  UNL1       -0.2770
      2 C          61.8476   86.3655    9.8393 C.2     1  UNL1        0.2270
      3 O          62.0144   86.7189   11.2875 O.2     1  UNL1       -0.2748
      4 C          60.7507   86.9974    9.0347 C.3     1  UNL1        0.0964
      5 C          59.8893   86.1503    8.1456 C.3     1  UNL1        0.0780
      6 N          58.7924   86.7822    7.3410 N.3     1  UNL1       -0.2970
      7 C          58.5569   88.2612    7.4253 C.3     1  UNL1        0.0689
      8 C          59.4183   89.1083    8.3144 C.3     1  UNL1        0.0220
      9 C          60.5152   88.4765    9.1190 C.3     1  UNL1        0.0337
     10 H          57.9228   86.3291    7.6217 H       1  UNL1        0.1233
     11 C          61.3766   89.3235   10.0081 C.ar    1  UNL1       -0.0217
     12 C          61.1850   89.2856   11.4953 C.ar    1  UNL1       -0.0012
     13 C          62.0464   90.1327   12.3843 C.ar    1  UNL1        0.0366
     14 C          63.0994   91.0177   11.7862 C.ar    1  UNL1        0.1387
     15 C          63.2910   91.0557   10.2990 C.ar    1  UNL1        0.0366
     16 C          62.4296   90.2086    9.4099 C.ar    1  UNL1       -0.0012
     17 O          63.9608   91.8648   12.6752 O.3     1  UNL1       -0.4714
     18 C          65.3788   92.1603   12.2852 C.3     1  UNL1        0.2525
     19 C          66.0873   93.3443   12.8735 C.3     1  UNL1        0.2525
     20 O          67.2118   93.9943   12.1232 O.3     1  UNL1       -0.4697
     21 C          66.9383   94.7094   10.8333 C.ar    1  UNL1        0.1596
     22 C          66.3202   96.0760   10.8498 C.ar    1  UNL1        0.0921
     23 CL         65.9756   96.7275   12.1562 Cl      1  UNL1       -0.0791
     24 C          66.0466   96.7911    9.5598 C.ar    1  UNL1        0.0103
     25 C          66.3912   96.1395    8.2534 C.ar    1  UNL1       -0.0200
     26 C          66.1177   96.8546    6.9635 C.3     1  UNL1        0.0311
     27 C          67.0094   94.7729    8.2369 C.ar    1  UNL1        0.0103
     28 C          67.2829   94.0578    9.5268 C.ar    1  UNL1        0.0921
     29 CL         67.9010   92.6912    9.5104 Cl      1  UNL1       -0.0791
     30 C          62.6109   85.0269    7.7476 C.3     1  UNL1        0.0758
     31 C          61.7226   84.7866    6.5631 C.3     1  UNL1        0.0215
     32 C          63.2103   84.6551    6.4238 C.3     1  UNL1        0.0215
     33 C          63.8747   84.7484   10.0004 C.3     1  UNL1        0.1201
     34 C          63.0032   81.4246   11.9862 C.ar    1  UNL1       -0.0194
     35 C          63.3405   82.3551   10.8592 C.ar    1  UNL1       -0.0067
     36 C          63.5374   83.8178   11.1276 C.ar    1  UNL1        0.0004
     37 C          63.3969   84.3498   12.5229 C.ar    1  UNL1        0.0343
     38 C          63.0596   83.4192   13.6500 C.ar    1  UNL1        0.1380
     39 C          62.8628   81.9566   13.3816 C.ar    1  UNL1        0.0326
     40 O          62.9192   83.9512   15.0455 O.3     1  UNL1       -0.4755
     41 C          63.9588   84.8776   15.6031 C.3     1  UNL1        0.2058
     42 C          63.5505   86.0157   16.4909 C.3     1  UNL1        0.0525
     43 C          63.6766   87.4289   16.0043 C.3     1  UNL1        0.0357
     44 C          64.4377   86.9480   14.8046 C.3     1  UNL1        0.0057
     45 C          62.9154   87.9099   17.2040 C.3     1  UNL1        0.0057
     46 C          63.8026   88.8422   15.5177 C.2     1  UNL1        0.0498
     47 O          63.0028   89.9329   16.1663 O.co2   1  UNL1       -0.5492
     48 O          64.7285   89.1648   14.3824 O.co2   1  UNL1       -0.5492
     49 C          62.8064   79.9619   11.7178 C.3     1  UNL1        0.0290
     50 C          62.8138   79.4505   10.3077 C.3     1  UNL1        0.0367
     51 C          62.5741   77.9948   10.0366 C.3     1  UNL1        0.1426
     52 C          64.4994   76.3654    9.4136 C.3     1  UNL1        0.1741
     53 O          63.5980   76.9774   10.4446 O.3     1  UNL1       -0.3511
@<TRIPOS>UNITY_ATOM_ATTR
47 1
charge -1
@<TRIPOS>BOND
     1    52    53    1
     2    53    51    1
     3    51    50    1
     4    50    49    1
     5    49    34    1
     6    34    35   ar
     7    35    36   ar
     8    36    33    1
     9    33     1    1
    10     1     2   am
    11     2     3    2
    12     4     2    1
    13     4     5    1
    14     5     6    1
    15     6     7    1
    16     7     8    1
    17     8     9    1
    18     9    11    1
    19    11    12   ar
    20    12    13   ar
    21    13    14   ar
    22    14    17    1
    23    17    18    1
    24    18    19    1
    25    19    20    1
    26    20    21    1
    27    21    22   ar
    28    22    23    1
    29    22    24   ar
    30    24    25   ar
    31    25    26    1
    32    25    27   ar
    33    27    28   ar
    34    28    29    1
    35    14    15   ar
    36    15    16   ar
    37     1    30    1
    38    30    31    1
    39    31    32    1
    40    36    37   ar
    41    37    38   ar
    42    38    40    1
    43    40    41    1
    44    41    42    1
    45    42    43    1
    46    43    44    1
    47    43    45    1
    48    43    46    1
    49    46    47   ar
    50    46    48   ar
    51    38    39   ar
    52    39    34   ar
    53     9     4    1
    54    16    11   ar
    55    32    30    1
    56    28    21   ar
    57     6    10    1
@<TRIPOS>MOLECULE
*****
 53 57 0 0 0
SMALL
GASTEIGER

@<TRIPOS>ATOM
      1 N          61.1927   90.4696   11.1929 N.am    1  UNL1       -0.2770
      2 C          61.6644   89.8829    9.8955 C.2     1  UNL1        0.2270
      3 O          62.9640   90.3335    9.2971 O.2     1  UNL1       -0.2748
      4 C          60.8366   88.8456    9.1965 C.3     1  UNL1        0.0964
      5 C          59.9754   89.2335    8.0313 C.3     1  UNL1        0.0780
      6 N          59.1475   88.1962    7.3323 N.3     1  UNL1       -0.2970
      7 C          59.1809   86.7709    7.7985 C.3     1  UNL1        0.0689
      8 C          60.0421   86.3829    8.9638 C.3     1  UNL1        0.0220
      9 C          60.8700   87.4202    9.6628 C.3     1  UNL1        0.0337
     10 H          59.4419   88.1935    6.3557 H       1  UNL1        0.1233
     11 C          61.7312   87.0323   10.8280 C.ar    1  UNL1       -0.0217
     12 C          62.7163   88.0130   11.3919 C.ar    1  UNL1       -0.0012
     13 C          63.5775   87.6250   12.5571 C.ar    1  UNL1        0.0366
     14 C          63.4537   86.2564   13.1585 C.ar    1  UNL1        0.1387
     15 C          62.4687   85.2757   12.5946 C.ar    1  UNL1        0.0366
     16 C          61.6074   85.6637   11.4293 C.ar    1  UNL1       -0.0012
     17 O          64.3149   85.8685   14.3237 O.3     1  UNL1       -0.4714
     18 C          65.2993   84.7448   14.1875 C.3     1  UNL1        0.2525
     19 C          64.8321   83.3227   14.2839 C.3     1  UNL1        0.2525
     20 O          63.4629   82.9486   13.7990 O.3     1  UNL1       -0.4697
     21 C          63.3061   81.9400   12.6998 C.ar    1  UNL1        0.1596
     22 C          62.5962   80.6456   12.9652 C.ar    1  UNL1        0.0921
     23 CL         62.0430   80.3597   14.3299 Cl      1  UNL1       -0.0791
     24 C          62.4394   79.6370   11.8660 C.ar    1  UNL1        0.0103
     25 C          62.9926   79.9228   10.5014 C.ar    1  UNL1       -0.0200
     26 C          62.8359   78.9143    9.4022 C.3     1  UNL1        0.0311
     27 C          63.7025   81.2173   10.2359 C.ar    1  UNL1        0.0103
     28 C          63.8593   82.2258   11.3351 C.ar    1  UNL1        0.0921
     29 CL         64.5692   83.5203   11.0697 Cl      1  UNL1       -0.0791
     30 C          59.8932   90.0190   11.7913 C.3     1  UNL1        0.0758
     31 C          59.1025   89.0107   12.5712 C.3     1  UNL1        0.0215
     32 C          58.4330   90.2468   12.0479 C.3     1  UNL1        0.0215
     33 C          62.0206   91.5070   11.8919 C.3     1  UNL1        0.1201
     34 C          63.5204   89.9566   15.2231 C.ar    1  UNL1       -0.0194
     35 C          62.5350   90.3683   14.1699 C.ar    1  UNL1       -0.0067
     36 C          63.0060   91.0953   12.9453 C.ar    1  UNL1        0.0004
     37 C          64.4625   91.4105   12.7739 C.ar    1  UNL1        0.0343
     38 C          65.4478   90.9988   13.8272 C.ar    1  UNL1        0.1380
     39 C          64.9768   90.2718   15.0518 C.ar    1  UNL1        0.0326
     40 O          66.9044   91.3140   13.6559 O.3     1  UNL1       -0.4755
     41 C          67.3271   92.4483   12.7701 C.3     1  UNL1        0.2058
     42 C          67.2715   92.2962   11.2788 C.3     1  UNL1        0.0525
     43 C          67.1895   93.5116   10.4036 C.3     1  UNL1        0.0357
     44 C          68.0560   92.8351    9.3831 C.3     1  UNL1        0.0057
     45 C          66.3230   94.1880   11.4241 C.3     1  UNL1        0.0057
     46 C          67.1075   94.7269    9.5283 C.2     1  UNL1        0.0498
     47 O          67.4588   94.6285    8.0733 O.co2   1  UNL1       -0.5492
     48 O          66.6741   96.0408   10.1080 O.co2   1  UNL1       -0.5492
     49 C          63.0493   89.2296   16.4477 C.3     1  UNL1        0.0290
     50 C          63.4001   87.7844   16.6434 C.3     1  UNL1        0.0367
     51 C          62.6376   86.9550   17.6337 C.3     1  UNL1        0.1426
     52 C          62.0779   84.8019   16.2918 C.3     1  UNL1        0.1741
     53 O          61.6358   85.9469   17.1540 O.3     1  UNL1       -0.3511
@<TRIPOS>UNITY_ATOM_ATTR
47 1
charge -1
@<TRIPOS>BOND
     1    52    53    1
     2    53    51    1
     3    51    50    1
     4    50    49    1
     5    49    34    1
     6    34    35   ar
     7    35    36   ar
     8    36    33    1
     9    33     1    1
    10     1     2   am
    11     2     3    2
    12     4     2    1
    13     4     5    1
    14     5     6    1
    15     6     7    1
    16     7     8    1
    17     8     9    1
    18     9    11    1
    19    11    12   ar
    20    12    13   ar
    21    13    14   ar
    22    14    17    1
    23    17    18    1
    24    18    19    1
    25    19    20    1
    26    20    21    1
    27    21    22   ar
    28    22    23    1
    29    22    24   ar
    30    24    25   ar
    31    25    26    1
    32    25    27   ar
    33    27    28   ar
    34    28    29    1
    35    14    15   ar
    36    15    16   ar
    37     1    30    1
    38    30    31    1
    39    31    32    1
    40    36    37   ar
    41    37    38   ar
    42    38    40    1
    43    40    41    1
    44    41    42    1
    45    42    43    1
    46    43    44    1
    47    43    45    1
    48    43    46    1
    49    46    47   ar
    50    46    48   ar
    51    38    39   ar
    52    39    34   ar
    53     9     4    1
    54    16    11   ar
    55    32    30    1
    56    28    21   ar
    57     6    10    1
@<TRIPOS>MOLECULE
*****
 53 57 0 0 0
SMALL
GASTEIGER

@<TRIPOS>ATOM
      1 N          64.2285   85.3233   14.5586 N.am    1  UNL1       -0.2770
      2 C          64.6444   84.3023   13.5413 C.2     1  UNL1        0.2270
      3 O          65.8293   84.5620   12.6591 O.2     1  UNL1       -0.2748
      4 C          63.8752   83.0216   13.4063 C.3     1  UNL1        0.0964
      5 C          64.1809   81.8643   14.3102 C.3     1  UNL1        0.0780
      6 N          63.4117   80.5836   14.1752 N.3     1  UNL1       -0.2970
      7 C          62.3368   80.4603   13.1363 C.3     1  UNL1        0.0689
      8 C          62.0310   81.6177   12.2323 C.3     1  UNL1        0.0220
      9 C          62.8002   82.8984   12.3673 C.3     1  UNL1        0.0337
     10 H          62.9701   80.4088   15.0779 H       1  UNL1        0.1233
     11 C          62.4945   84.0557   11.4634 C.ar    1  UNL1       -0.0217
     12 C          61.5826   85.1515   11.9302 C.ar    1  UNL1       -0.0012
     13 C          61.2769   86.3088   11.0263 C.ar    1  UNL1        0.0366
     14 C          61.8831   86.3705    9.6556 C.ar    1  UNL1        0.1387
     15 C          62.7950   85.2748    9.1888 C.ar    1  UNL1        0.0366
     16 C          63.1007   84.1173   10.0927 C.ar    1  UNL1       -0.0012
     17 O          61.5774   87.5278    8.7517 O.3     1  UNL1       -0.4714
     18 C          60.1662   88.0160    8.6095 C.3     1  UNL1        0.2525
     19 C          59.5929   88.2661    7.2461 C.3     1  UNL1        0.2525
     20 O          58.6575   89.4177    7.0255 O.3     1  UNL1       -0.4697
     21 C          58.9110   90.3866    5.9087 C.ar    1  UNL1        0.1596
     22 C          57.7587   90.9708    5.1467 C.ar    1  UNL1        0.0921
     23 CL         56.3529   90.5863    5.5014 Cl      1  UNL1       -0.0791
     24 C          58.0122   91.9397    4.0299 C.ar    1  UNL1        0.0103
     25 C          59.4180   92.3242    3.6752 C.ar    1  UNL1       -0.0200
     26 C          59.6715   93.2931    2.5585 C.3     1  UNL1        0.0311
     27 C          60.5703   91.7399    4.4374 C.ar    1  UNL1        0.0103
     28 C          60.3168   90.7711    5.5541 C.ar    1  UNL1        0.0921
     29 CL         61.4692   90.1868    6.3162 Cl      1  UNL1       -0.0791
     30 C          63.0435   85.0636   15.4407 C.3     1  UNL1        0.0758
     31 C          62.3370   85.2395   16.7522 C.3     1  UNL1        0.0215
     32 C          61.6976   84.4378   15.6574 C.3     1  UNL1        0.0215
     33 C          64.9977   86.6040   14.6936 C.3     1  UNL1        0.1201
     34 C          63.0951   89.3922   12.6065 C.ar    1  UNL1       -0.0194
     35 C          63.7400   88.0881   12.9714 C.ar    1  UNL1       -0.0067
     36 C          64.3528   87.9082   14.3287 C.ar    1  UNL1        0.0004
     37 C          64.3207   89.0325   15.3210 C.ar    1  UNL1        0.0343
     38 C          63.6758   90.3367   14.9561 C.ar    1  UNL1        0.1380
     39 C          63.0630   90.5166   13.5988 C.ar    1  UNL1        0.0326
     40 O          63.6436   91.4611   15.9484 O.3     1  UNL1       -0.4755
     41 C          64.6565   92.5643   15.8650 C.3     1  UNL1        0.2058
     42 C          66.0913   92.2927   16.2083 C.3     1  UNL1        0.0525
     43 C          67.1451   92.3720   15.1438 C.3     1  UNL1        0.0357
     44 C          68.2054   92.1222   16.1749 C.3     1  UNL1        0.0057
     45 C          66.0848   92.6217   14.1127 C.3     1  UNL1        0.0057
     46 C          68.1989   92.4512   14.0793 C.2     1  UNL1        0.0498
     47 O          67.8482   92.1481   12.6527 O.co2   1  UNL1       -0.5492
     48 O          69.6035   92.8335   14.4414 O.co2   1  UNL1       -0.5492
     49 C          62.4824   89.5721   11.2492 C.3     1  UNL1        0.0290
     50 C          61.3842   90.5739   11.0489 C.3     1  UNL1        0.0367
     51 C          59.9676   90.2108   11.3825 C.3     1  UNL1        0.1426
     52 C          58.3678   88.9743   13.0141 C.3     1  UNL1        0.1741
     53 O          59.6851   89.0595   12.3017 O.3     1  UNL1       -0.3511
@<TRIPOS>UNITY_ATOM_ATTR
47 1
charge -1
@<TRIPOS>BOND
     1    52    53    1
     2    53    51    1
     3    51    50    1
     4    50    49    1
     5    49    34    1
     6    34    35   ar
     7    35    36   ar
     8    36    33    1
     9    33     1    1
    10     1     2   am
    11     2     3    2
    12     4     2    1
    13     4     5    1
    14     5     6    1
    15     6     7    1
    16     7     8    1
    17     8     9    1
    18     9    11    1
    19    11    12   ar
    20    12    13   ar
    21    13    14   ar
    22    14    17    1
    23    17    18    1
    24    18    19    1
    25    19    20    1
    26    20    21    1
    27    21    22   ar
    28    22    23    1
    29    22    24   ar
    30    24    25   ar
    31    25    26    1
    32    25    27   ar
    33    27    28   ar
    34    28    29    1
    35    14    15   ar
    36    15    16   ar
    37     1    30    1
    38    30    31    1
    39    31    32    1
    40    36    37   ar
    41    37    38   ar
    42    38    40    1
    43    40    41    1
    44    41    42    1
    45    42    43    1
    46    43    44    1
    47    43    45    1
    48    43    46    1
    49    46    47   ar
    50    46    48   ar
    51    38    39   ar
    52    39    34   ar
    53     9     4    1
    54    16    11   ar
    55    32    30    1
    56    28    21   ar
    57     6    10    1
@<TRIPOS>MOLECULE
*****
 53 57 0 0 0
SMALL
GASTEIGER

@<TRIPOS>ATOM
      1 N          64.2211   85.2720   14.5776 N.am    1  UNL1       -0.2770
      2 C          64.6379   84.2622   13.5497 C.2     1  UNL1        0.2270
      3 O          65.8233   84.5319   12.6709 O.2     1  UNL1       -0.2748
      4 C          63.8694   82.9827   13.4005 C.3     1  UNL1        0.0964
      5 C          64.1723   81.8172   14.2948 C.3     1  UNL1        0.0780
      6 N          63.4038   80.5377   14.1456 N.3     1  UNL1       -0.2970
      7 C          62.3323   80.4237   13.1021 C.3     1  UNL1        0.0689
      8 C          62.0293   81.5893   12.2077 C.3     1  UNL1        0.0220
      9 C          62.7979   82.8687   12.3569 C.3     1  UNL1        0.0337
     10 H          62.9594   80.3546   15.0452 H       1  UNL1        0.1233
     11 C          62.4949   84.0342   11.4626 C.ar    1  UNL1       -0.0217
     12 C          61.6206   85.1496   11.9544 C.ar    1  UNL1       -0.0012
     13 C          61.3176   86.3150   11.0601 C.ar    1  UNL1        0.0366
     14 C          61.8890   86.3653    9.6740 C.ar    1  UNL1        0.1387
     15 C          62.7632   85.2501    9.1823 C.ar    1  UNL1        0.0366
     16 C          63.0662   84.0845   10.0766 C.ar    1  UNL1       -0.0012
     17 O          61.5860   87.5308    8.7797 O.3     1  UNL1       -0.4714
     18 C          60.1761   88.0242    8.6424 C.3     1  UNL1        0.2525
     19 C          59.6105   88.3096    7.2828 C.3     1  UNL1        0.2525
     20 O          58.6977   89.4826    7.0814 O.3     1  UNL1       -0.4697
     21 C          58.9213   90.4180    5.9302 C.ar    1  UNL1        0.1596
     22 C          60.3153   90.8235    5.5532 C.ar    1  UNL1        0.0921
     23 CL         61.4858   90.2937    6.3273 Cl      1  UNL1       -0.0791
     24 C          60.5389   91.7590    4.4020 C.ar    1  UNL1        0.0103
     25 C          59.3684   92.2888    3.6279 C.ar    1  UNL1       -0.0200
     26 C          59.5920   93.2242    2.4768 C.3     1  UNL1        0.0311
     27 C          57.9743   91.8833    4.0050 C.ar    1  UNL1        0.0103
     28 C          57.7508   90.9479    5.1561 C.ar    1  UNL1        0.0921
     29 CL         56.3567   90.5423    5.5332 Cl      1  UNL1       -0.0791
     30 C          63.0357   85.0023   15.4563 C.3     1  UNL1        0.0758
     31 C          61.7279   84.3081   15.6965 C.3     1  UNL1        0.0215
     32 C          62.2904   85.2293   16.7381 C.3     1  UNL1        0.0215
     33 C          64.9896   86.5515   14.7268 C.3     1  UNL1        0.1201
     34 C          63.1224   89.3265   12.5906 C.ar    1  UNL1       -0.0194
     35 C          63.7549   88.0224   12.9769 C.ar    1  UNL1       -0.0067
     36 C          64.3571   87.8557   14.3405 C.ar    1  UNL1        0.0004
     37 C          64.3268   88.9931   15.3179 C.ar    1  UNL1        0.0343
     38 C          63.6943   90.2972   14.9317 C.ar    1  UNL1        0.1380
     39 C          63.0922   90.4639   13.5680 C.ar    1  UNL1        0.0326
     40 O          63.6640   91.4347   15.9091 O.3     1  UNL1       -0.4755
     41 C          64.9074   92.2317   16.1711 C.3     1  UNL1        0.2058
     42 C          65.7323   92.7338   15.0231 C.3     1  UNL1        0.0525
     43 C          67.2127   92.4934   15.0018 C.3     1  UNL1        0.0357
     44 C          67.0336   91.4882   13.9030 C.3     1  UNL1        0.0057
     45 C          67.3918   93.4986   16.1006 C.3     1  UNL1        0.0057
     46 C          68.6931   92.2531   14.9804 C.2     1  UNL1        0.0498
     47 O          69.4152   92.1362   13.6707 O.co2   1  UNL1       -0.5492
     48 O          69.4516   92.1296   16.2686 O.co2   1  UNL1       -0.5492
     49 C          62.5202   89.4932   11.2270 C.3     1  UNL1        0.0290
     50 C          62.3543   90.8648   10.6429 C.3     1  UNL1        0.0367
     51 C          63.5376   91.5811   10.0626 C.3     1  UNL1        0.1426
     52 C          65.4350   93.2113   10.7641 C.3     1  UNL1        0.1741
     53 O          64.7181   91.9042   10.9298 O.3     1  UNL1       -0.3511
@<TRIPOS>UNITY_ATOM_ATTR
47 1
charge -1
@<TRIPOS>BOND
     1    52    53    1
     2    53    51    1
     3    51    50    1
     4    50    49    1
     5    49    34    1
     6    34    35   ar
     7    35    36   ar
     8    36    33    1
     9    33     1    1
    10     1     2   am
    11     2     3    2
    12     4     2    1
    13     4     5    1
    14     5     6    1
    15     6     7    1
    16     7     8    1
    17     8     9    1
    18     9    11    1
    19    11    12   ar
    20    12    13   ar
    21    13    14   ar
    22    14    17    1
    23    17    18    1
    24    18    19    1
    25    19    20    1
    26    20    21    1
    27    21    22   ar
    28    22    23    1
    29    22    24   ar
    30    24    25   ar
    31    25    26    1
    32    25    27   ar
    33    27    28   ar
    34    28    29    1
    35    14    15   ar
    36    15    16   ar
    37     1    30    1
    38    30    31    1
    39    31    32    1
    40    36    37   ar
    41    37    38   ar
    42    38    40    1
    43    40    41    1
    44    41    42    1
    45    42    43    1
    46    43    44    1
    47    43    45    1
    48    43    46    1
    49    46    47   ar
    50    46    48   ar
    51    38    39   ar
    52    39    34   ar
    53     9     4    1
    54    16    11   ar
    55    32    30    1
    56    28    21   ar
    57     6    10    1
