@<TRIPOS>MOLECULE
*****
 29 32 0 0 0
SMALL
GASTEIGER

@<TRIPOS>ATOM
      1 C          64.7096   90.7945   14.4459 C.ar    1  UNL1        0.0516
      2 C          65.9393   91.5935   14.7615 C.ar    1  UNL1        0.0147
      3 C          66.4494   92.6049   13.7784 C.ar    1  UNL1        0.0010
      4 C          65.7298   92.8175   12.4794 C.ar    1  UNL1       -0.0014
      5 C          64.5001   92.0186   12.1637 C.ar    1  UNL1        0.0010
      6 C          63.9901   91.0071   13.1470 C.ar    1  UNL1        0.0147
      7 C          66.2400   93.8290   11.4962 C.2     1  UNL1        0.0158
      8 C          65.8434   95.2695   11.6283 C.2     1  UNL1        0.0487
      9 C          66.3535   96.2810   10.6452 C.2     1  UNL1        0.2355
     10 N          67.2603   95.8519    9.5299 N.2     1  UNL1       -0.0325
     11 C          67.6569   94.4114    9.3979 C.2     1  UNL1        0.3799
     12 N          68.5302   93.6974    8.4092 N.2     1  UNL1       -0.0106
     13 C          68.5598   92.2446    8.7813 C.2     1  UNL1        0.3351
     14 N          67.7048   92.0607   10.0000 N.2     1  UNL1       -0.2103
     15 C          67.1467   93.3999   10.3811 C.3     1  UNL1        0.2404
     16 N          63.5792   87.3292   16.0154 N.am    1  UNL1       -0.2681
     17 C          64.0893   88.3406   15.0323 C.2     1  UNL1        0.3082
     18 O          64.4893   87.9098   13.6523 O.2     1  UNL1       -0.2522
     19 N          64.1995   89.7831   15.4290 N.am    1  UNL1       -0.2681
     20 H          63.3167   87.6120   16.9211 H       1  UNL1        0.1564
     21 H          63.9369   90.0659   16.3347 H       1  UNL1        0.1564
     22 C          63.2489   83.0020   14.8251 C.ar    1  UNL1        0.1388
     23 C          64.4872   83.7795   14.4905 C.ar    1  UNL1        0.0382
     24 C          64.5973   85.2219   14.8873 C.ar    1  UNL1        0.0178
     25 C          63.4690   85.8868   15.6187 C.ar    1  UNL1        0.0518
     26 C          62.2307   85.1094   15.9534 C.ar    1  UNL1        0.0178
     27 C          62.1205   83.6670   15.5566 C.ar    1  UNL1        0.0382
     28 C          61.8204   81.0048   13.9764 C.3     1  UNL1        0.2525
     29 O          63.1387   81.5597   14.4284 O.3     1  UNL1       -0.4714
@<TRIPOS>BOND
     1    28    29    1
     2    29    22    1
     3    22    23   ar
     4    23    24   ar
     5    24    25   ar
     6    25    16    1
     7    16    17   am
     8    17    18    2
     9    17    19   am
    10    19     1    1
    11     1     2   ar
    12     2     3   ar
    13     3     4   ar
    14     4     7    1
    15     7     8    2
    16     8     9    1
    17     9    10    2
    18    10    11    1
    19    11    12    2
    20    12    13    1
    21    13    14    2
    22    14    15    1
    23     4     5   ar
    24     5     6   ar
    25    25    26   ar
    26    26    27   ar
    27    27    22   ar
    28     6     1   ar
    29    15     7    1
    30    15    11    1
    31    16    20    1
    32    19    21    1
@<TRIPOS>MOLECULE
*****
 29 32 0 0 0
SMALL
GASTEIGER

@<TRIPOS>ATOM
      1 C          64.9309   90.3719   14.1095 C.ar    1  UNL1        0.0516
      2 C          66.3120   90.9254   14.3005 C.ar    1  UNL1        0.0147
      3 C          66.9131   91.8186   13.2563 C.ar    1  UNL1        0.0010
      4 C          66.1332   92.1586   12.0208 C.ar    1  UNL1       -0.0014
      5 C          64.7521   91.6052   11.8297 C.ar    1  UNL1        0.0010
      6 C          64.1510   90.7119   12.8741 C.ar    1  UNL1        0.0147
      7 C          66.7343   93.0519   10.9764 C.2     1  UNL1        0.0158
      8 C          67.5123   92.4585    9.8395 C.2     1  UNL1        0.0487
      9 C          68.1135   93.3517    8.7952 C.2     1  UNL1        0.2355
     10 N          67.9367   94.8385    8.8878 N.2     1  UNL1       -0.0325
     11 C          67.1587   95.4318   10.0248 C.2     1  UNL1        0.3799
     12 N          66.8202   96.8500   10.3771 N.2     1  UNL1       -0.0106
     13 C          66.0099   96.8332   11.6393 C.2     1  UNL1        0.3351
     14 N          65.8475   95.4046   12.0669 N.2     1  UNL1       -0.2103
     15 C          66.5575   94.5385   11.0691 C.3     1  UNL1        0.2404
     16 N          63.5178   87.1288   15.9080 N.am    1  UNL1       -0.2681
     17 C          64.1189   88.0221   14.8638 C.2     1  UNL1        0.3082
     18 O          64.5093   87.4589   13.5295 O.2     1  UNL1       -0.2522
     19 N          64.3297   89.4787   15.1537 N.am    1  UNL1       -0.2681
     20 H          63.2616   87.4985   16.7838 H       1  UNL1        0.1564
     21 H          64.0735   89.8484   16.0295 H       1  UNL1        0.1564
     22 C          62.8854   82.7592   15.0382 C.ar    1  UNL1        0.1388
     23 C          64.2478   83.3662   14.8787 C.ar    1  UNL1        0.0382
     24 C          64.4586   84.8227   15.1687 C.ar    1  UNL1        0.0178
     25 C          63.3070   85.6722   15.6181 C.ar    1  UNL1        0.0518
     26 C          61.9446   85.0654   15.7776 C.ar    1  UNL1        0.0178
     27 C          61.7337   83.6088   15.4876 C.ar    1  UNL1        0.0382
     28 C          63.0382   80.7453   13.4039 C.3     1  UNL1        0.2525
     29 O          62.6746   81.3027   14.7482 O.3     1  UNL1       -0.4714
@<TRIPOS>BOND
     1    28    29    1
     2    29    22    1
     3    22    23   ar
     4    23    24   ar
     5    24    25   ar
     6    25    16    1
     7    16    17   am
     8    17    18    2
     9    17    19   am
    10    19     1    1
    11     1     2   ar
    12     2     3   ar
    13     3     4   ar
    14     4     7    1
    15     7     8    2
    16     8     9    1
    17     9    10    2
    18    10    11    1
    19    11    12    2
    20    12    13    1
    21    13    14    2
    22    14    15    1
    23     4     5   ar
    24     5     6   ar
    25    25    26   ar
    26    26    27   ar
    27    27    22   ar
    28     6     1   ar
    29    15     7    1
    30    15    11    1
    31    16    20    1
    32    19    21    1
@<TRIPOS>MOLECULE
*****
 29 32 0 0 0
SMALL
GASTEIGER

@<TRIPOS>ATOM
      1 C          63.4928   87.4643   15.7514 C.ar    1  UNL1        0.0516
      2 C          63.0891   88.7004   16.4992 C.ar    1  UNL1        0.0147
      3 C          63.6766   90.0288   16.1250 C.ar    1  UNL1        0.0010
      4 C          64.6679   90.1212   15.0030 C.ar    1  UNL1       -0.0014
      5 C          65.0717   88.8851   14.2552 C.ar    1  UNL1        0.0010
      6 C          64.4841   87.5567   14.6295 C.ar    1  UNL1        0.0147
      7 C          65.2554   91.4496   14.6288 C.2     1  UNL1        0.0158
      8 C          65.9381   92.2876   15.6689 C.2     1  UNL1        0.0487
      9 C          66.5256   93.6159   15.2948 C.2     1  UNL1        0.2355
     10 N          66.4305   94.1066   13.8804 N.2     1  UNL1       -0.0325
     11 C          65.7478   93.2687   12.8403 C.2     1  UNL1        0.3799
     12 N          65.5023   93.4885   11.3769 N.2     1  UNL1       -0.0106
     13 C          64.7631   92.2959   10.8467 C.2     1  UNL1        0.3351
     14 N          64.5517   91.3390   11.9824 N.2     1  UNL1       -0.2103
     15 C          65.1603   91.9402   13.2145 C.3     1  UNL1        0.2404
     16 N          62.3975   83.6556   15.5422 N.am    1  UNL1       -0.2681
     17 C          62.9850   84.9840   15.1681 C.2     1  UNL1        0.3082
     18 O          63.6523   85.1606   13.8363 O.2     1  UNL1       -0.2522
     19 N          62.9053   86.1359   16.1256 N.am    1  UNL1       -0.2681
     20 H          61.9596   83.5397   16.4163 H       1  UNL1        0.1564
     21 H          62.4674   86.0200   16.9997 H       1  UNL1        0.1564
     22 C          62.6368   80.2000   12.6696 C.ar    1  UNL1        0.1388
     23 C          63.8049   81.1281   12.8254 C.ar    1  UNL1        0.0382
     24 C          63.7251   82.2799   13.7829 C.ar    1  UNL1        0.0178
     25 C          62.4772   82.5037   14.5847 C.ar    1  UNL1        0.0518
     26 C          61.3092   81.5757   14.4290 C.ar    1  UNL1        0.0178
     27 C          61.3889   80.4238   13.4714 C.ar    1  UNL1        0.0382
     28 C          62.7879   79.3037   10.2358 C.3     1  UNL1        0.2525
     29 O          62.7165   79.0482   11.7122 O.3     1  UNL1       -0.4714
@<TRIPOS>BOND
     1    28    29    1
     2    29    22    1
     3    22    23   ar
     4    23    24   ar
     5    24    25   ar
     6    25    16    1
     7    16    17   am
     8    17    18    2
     9    17    19   am
    10    19     1    1
    11     1     2   ar
    12     2     3   ar
    13     3     4   ar
    14     4     7    1
    15     7     8    2
    16     8     9    1
    17     9    10    2
    18    10    11    1
    19    11    12    2
    20    12    13    1
    21    13    14    2
    22    14    15    1
    23     4     5   ar
    24     5     6   ar
    25    25    26   ar
    26    26    27   ar
    27    27    22   ar
    28     6     1   ar
    29    15     7    1
    30    15    11    1
    31    16    20    1
    32    19    21    1
@<TRIPOS>MOLECULE
*****
 29 32 0 0 0
SMALL
GASTEIGER

@<TRIPOS>ATOM
      1 C          46.0655   74.0193   19.4332 C.ar    1  UNL1        0.0516
      2 C          47.2281   74.9539   19.2743 C.ar    1  UNL1        0.0147
      3 C          47.0913   76.3948   19.6676 C.ar    1  UNL1        0.0010
      4 C          45.7918   76.9014   20.2199 C.ar    1  UNL1       -0.0014
      5 C          44.6293   75.9670   20.3788 C.ar    1  UNL1        0.0010
      6 C          44.7661   74.5260   19.9855 C.ar    1  UNL1        0.0147
      7 C          45.6551   78.3425   20.6132 C.2     1  UNL1        0.0158
      8 C          45.4013   78.7081   22.0456 C.2     1  UNL1        0.0487
      9 C          45.2645   80.1491   22.4390 C.2     1  UNL1        0.2355
     10 N          45.3815   81.2246   21.3998 N.2     1  UNL1       -0.0325
     11 C          45.6352   80.8589   19.9674 C.2     1  UNL1        0.3799
     12 N          45.7965   81.6940   18.7318 N.2     1  UNL1       -0.0106
     13 C          46.0330   80.7691   17.5749 C.2     1  UNL1        0.3351
     14 N          46.0179   79.3624   18.0954 N.2     1  UNL1       -0.2103
     15 C          45.7720   79.4179   19.5741 C.3     1  UNL1        0.2404
     16 N          45.9971   70.7050   17.2516 N.am    1  UNL1       -0.2681
     17 C          45.8603   72.1459   17.6449 C.2     1  UNL1        0.3082
     18 O          45.3814   73.1546   16.6433 O.2     1  UNL1       -0.2522
     19 N          46.2023   72.5784   19.0400 N.am    1  UNL1       -0.2681
     20 H          46.3114   70.0430   17.9091 H       1  UNL1        0.1564
     21 H          46.5166   71.9164   19.6974 H       1  UNL1        0.1564
     22 C          44.9711   69.4075   13.0666 C.ar    1  UNL1        0.1388
     23 C          46.3078   69.0614   13.6527 C.ar    1  UNL1        0.0382
     24 C          46.6497   69.4939   15.0477 C.ar    1  UNL1        0.0178
     25 C          45.6550   70.2725   15.8566 C.ar    1  UNL1        0.0518
     26 C          44.3184   70.6187   15.2706 C.ar    1  UNL1        0.0178
     27 C          43.9764   70.1862   13.8755 C.ar    1  UNL1        0.0382
     28 C          43.6391   69.7613   10.8642 C.3     1  UNL1        0.2525
     29 O          44.6291   68.9751   11.6717 O.3     1  UNL1       -0.4714
@<TRIPOS>BOND
     1    28    29    1
     2    29    22    1
     3    22    23   ar
     4    23    24   ar
     5    24    25   ar
     6    25    16    1
     7    16    17   am
     8    17    18    2
     9    17    19   am
    10    19     1    1
    11     1     2   ar
    12     2     3   ar
    13     3     4   ar
    14     4     7    1
    15     7     8    2
    16     8     9    1
    17     9    10    2
    18    10    11    1
    19    11    12    2
    20    12    13    1
    21    13    14    2
    22    14    15    1
    23     4     5   ar
    24     5     6   ar
    25    25    26   ar
    26    26    27   ar
    27    27    22   ar
    28     6     1   ar
    29    15     7    1
    30    15    11    1
    31    16    20    1
    32    19    21    1
@<TRIPOS>MOLECULE
*****
 29 32 0 0 0
SMALL
GASTEIGER

@<TRIPOS>ATOM
      1 C          60.2337   86.8135    9.4529 C.ar    1  UNL1        0.0516
      2 C          60.1669   87.4831   10.7936 C.ar    1  UNL1        0.0147
      3 C          61.0886   87.0503   11.8948 C.ar    1  UNL1        0.0010
      4 C          62.0773   85.9477   11.6556 C.ar    1  UNL1       -0.0014
      5 C          62.1441   85.2781   10.3150 C.ar    1  UNL1        0.0010
      6 C          61.2223   85.7110    9.2137 C.ar    1  UNL1        0.0147
      7 C          62.9990   85.5149   12.7570 C.2     1  UNL1        0.0158
      8 C          63.7720   86.5389   13.5339 C.2     1  UNL1        0.0487
      9 C          64.6938   86.1061   14.6352 C.2     1  UNL1        0.2355
     10 N          64.8426   84.6491   14.9597 N.2     1  UNL1       -0.0325
     11 C          64.0695   83.6251   14.1827 C.2     1  UNL1        0.3799
     12 N          64.0116   82.1290   14.2746 N.2     1  UNL1       -0.0106
     13 C          63.0540   81.6373   13.2300 C.2     1  UNL1        0.3351
     14 N          62.5201   82.8294   12.4925 N.2     1  UNL1       -0.2103
     15 C          63.1478   84.0579   13.0813 C.3     1  UNL1        0.2404
     16 N          58.6865   88.9262    6.4709 N.am    1  UNL1       -0.2681
     17 C          59.6082   88.4933    7.5722 C.2     1  UNL1        0.3082
     18 O          60.8263   89.3073    7.8941 O.2     1  UNL1       -0.2522
     19 N          59.3120   87.2464    8.3516 N.am    1  UNL1       -0.2681
     20 H          57.8871   88.3919    6.2596 H       1  UNL1        0.1564
     21 H          58.5125   86.7121    8.1403 H       1  UNL1        0.1564
     22 C          59.5752   92.6669    4.1326 C.ar    1  UNL1        0.1388
     23 C          58.1685   92.3632    4.5555 C.ar    1  UNL1        0.0382
     24 C          57.8723   91.1163    5.3350 C.ar    1  UNL1        0.0178
     25 C          58.9828   90.1731    5.6914 C.ar    1  UNL1        0.0518
     26 C          60.3895   90.4767    5.2686 C.ar    1  UNL1        0.0178
     27 C          60.6858   91.7236    4.4891 C.ar    1  UNL1        0.0382
     28 C          60.1270   93.8326    1.8773 C.3     1  UNL1        0.2525
     29 O          59.8715   93.9137    3.3532 O.3     1  UNL1       -0.4714
@<TRIPOS>BOND
     1    28    29    1
     2    29    22    1
     3    22    23   ar
     4    23    24   ar
     5    24    25   ar
     6    25    16    1
     7    16    17   am
     8    17    18    2
     9    17    19   am
    10    19     1    1
    11     1     2   ar
    12     2     3   ar
    13     3     4   ar
    14     4     7    1
    15     7     8    2
    16     8     9    1
    17     9    10    2
    18    10    11    1
    19    11    12    2
    20    12    13    1
    21    13    14    2
    22    14    15    1
    23     4     5   ar
    24     5     6   ar
    25    25    26   ar
    26    26    27   ar
    27    27    22   ar
    28     6     1   ar
    29    15     7    1
    30    15    11    1
    31    16    20    1
    32    19    21    1
@<TRIPOS>MOLECULE
*****
 29 32 0 0 0
SMALL
GASTEIGER

@<TRIPOS>ATOM
      1 C          63.5719   86.9110   15.2350 C.ar    1  UNL1        0.0516
      2 C          63.0926   85.8520   16.1831 C.ar    1  UNL1        0.0147
      3 C          62.8080   84.4680   15.6798 C.ar    1  UNL1        0.0010
      4 C          63.0026   84.1428   14.2284 C.ar    1  UNL1       -0.0014
      5 C          63.4818   85.2017   13.2803 C.ar    1  UNL1        0.0010
      6 C          63.7665   86.5858   13.7836 C.ar    1  UNL1        0.0147
      7 C          62.7178   82.7587   13.7252 C.2     1  UNL1        0.0158
      8 C          62.0075   81.7724   14.6042 C.2     1  UNL1        0.0487
      9 C          61.7228   80.3884   14.1010 C.2     1  UNL1        0.2355
     10 N          62.1484   79.9905   12.7187 N.2     1  UNL1       -0.0325
     11 C          62.8588   80.9768   11.8397 C.2     1  UNL1        0.3799
     12 N          63.3946   80.8722   10.4426 N.2     1  UNL1       -0.0106
     13 C          64.0104   82.1916   10.0824 C.2     1  UNL1        0.3351
     14 N          63.8553   83.1117   11.2568 N.2     1  UNL1       -0.2103
     15 C          63.1435   82.3609   12.3430 C.3     1  UNL1        0.2404
     16 N          64.6593   90.7271   15.3015 N.am    1  UNL1       -0.2681
     17 C          64.3746   89.3431   14.7983 C.2     1  UNL1        0.3082
     18 O          64.6078   89.0070   13.3552 O.2     1  UNL1       -0.2522
     19 N          63.8566   88.2950   15.7382 N.am    1  UNL1       -0.2681
     20 H          64.5062   90.9476   16.2487 H       1  UNL1        0.1564
     21 H          63.7035   88.5155   16.6854 H       1  UNL1        0.1564
     22 C          66.2131   93.8712   12.4819 C.ar    1  UNL1        0.1388
     23 C          65.2643   92.8211   11.9850 C.ar    1  UNL1        0.0382
     24 C          64.7463   91.7730   12.9249 C.ar    1  UNL1        0.0178
     25 C          65.1773   91.7752   14.3617 C.ar    1  UNL1        0.0518
     26 C          66.1260   92.8253   14.8586 C.ar    1  UNL1        0.0178
     27 C          66.6440   93.8734   13.9187 C.ar    1  UNL1        0.0382
     28 C          66.9562   94.5855   10.0971 C.3     1  UNL1        0.2525
     29 O          66.7310   94.9192   11.5421 O.3     1  UNL1       -0.4714
@<TRIPOS>BOND
     1    28    29    1
     2    29    22    1
     3    22    23   ar
     4    23    24   ar
     5    24    25   ar
     6    25    16    1
     7    16    17   am
     8    17    18    2
     9    17    19   am
    10    19     1    1
    11     1     2   ar
    12     2     3   ar
    13     3     4   ar
    14     4     7    1
    15     7     8    2
    16     8     9    1
    17     9    10    2
    18    10    11    1
    19    11    12    2
    20    12    13    1
    21    13    14    2
    22    14    15    1
    23     4     5   ar
    24     5     6   ar
    25    25    26   ar
    26    26    27   ar
    27    27    22   ar
    28     6     1   ar
    29    15     7    1
    30    15    11    1
    31    16    20    1
    32    19    21    1
@<TRIPOS>MOLECULE
*****
 29 32 0 0 0
SMALL
GASTEIGER

@<TRIPOS>ATOM
      1 C          60.1459   86.7642    9.2635 C.ar    1  UNL1        0.0516
      2 C          60.1239   87.3451   10.6464 C.ar    1  UNL1        0.0147
      3 C          61.0713   86.8326   11.6903 C.ar    1  UNL1        0.0010
      4 C          62.0408   85.7392   11.3514 C.ar    1  UNL1       -0.0014
      5 C          62.0627   85.1583    9.9686 C.ar    1  UNL1        0.0010
      6 C          61.1153   85.6709    8.9247 C.ar    1  UNL1        0.0147
      7 C          62.9882   85.2267   12.3953 C.2     1  UNL1        0.0158
      8 C          63.2723   83.7572   12.4937 C.2     1  UNL1        0.0487
      9 C          64.2197   83.2448   13.5375 C.2     1  UNL1        0.2355
     10 N          64.8830   84.2018   14.4832 N.2     1  UNL1       -0.0325
     11 C          64.5988   85.6714   14.3848 C.2     1  UNL1        0.3799
     12 N          65.0998   86.8454   15.1726 N.2     1  UNL1       -0.0106
     13 C          64.4620   88.0835   14.6156 C.2     1  UNL1        0.3351
     14 N          63.5668   87.6746   13.4835 N.2     1  UNL1       -0.2103
     15 C          63.6514   86.1838   13.3409 C.3     1  UNL1        0.2404
     16 N          58.5891   89.0271    6.3991 N.am    1  UNL1       -0.2681
     17 C          59.5364   88.5147    7.4430 C.2     1  UNL1        0.3082
     18 O          60.8219   89.2401    7.7102 O.2     1  UNL1       -0.2522
     19 N          59.1985   87.2767    8.2197 N.am    1  UNL1       -0.2681
     20 H          57.7454   88.5510    6.2237 H       1  UNL1        0.1564
     21 H          58.3548   86.8005    8.0443 H       1  UNL1        0.1564
     22 C          59.6028   92.7411    4.0690 C.ar    1  UNL1        0.1388
     23 C          58.1874   92.4859    4.4951 C.ar    1  UNL1        0.0382
     24 C          57.8495   91.2480    5.2718 C.ar    1  UNL1        0.0178
     25 C          58.9270   90.2651    5.6224 C.ar    1  UNL1        0.0518
     26 C          60.3424   90.5201    5.1963 C.ar    1  UNL1        0.0178
     27 C          60.6804   91.7581    4.4196 C.ar    1  UNL1        0.0382
     28 C          60.1146   93.9065    1.8041 C.3     1  UNL1        0.2525
     29 O          59.9407   93.9789    3.2923 O.3     1  UNL1       -0.4714
@<TRIPOS>BOND
     1    28    29    1
     2    29    22    1
     3    22    23   ar
     4    23    24   ar
     5    24    25   ar
     6    25    16    1
     7    16    17   am
     8    17    18    2
     9    17    19   am
    10    19     1    1
    11     1     2   ar
    12     2     3   ar
    13     3     4   ar
    14     4     7    1
    15     7     8    2
    16     8     9    1
    17     9    10    2
    18    10    11    1
    19    11    12    2
    20    12    13    1
    21    13    14    2
    22    14    15    1
    23     4     5   ar
    24     5     6   ar
    25    25    26   ar
    26    26    27   ar
    27    27    22   ar
    28     6     1   ar
    29    15     7    1
    30    15    11    1
    31    16    20    1
    32    19    21    1
@<TRIPOS>MOLECULE
*****
 29 32 0 0 0
SMALL
GASTEIGER

@<TRIPOS>ATOM
      1 C          63.6022   87.5534   14.2905 C.ar    1  UNL1        0.0516
      2 C          64.5075   88.4210   15.1138 C.ar    1  UNL1        0.0147
      3 C          64.9735   89.7415   14.5764 C.ar    1  UNL1        0.0010
      4 C          64.5342   90.1946   13.2155 C.ar    1  UNL1       -0.0014
      5 C          63.6289   89.3271   12.3922 C.ar    1  UNL1        0.0010
      6 C          63.1629   88.0065   12.9297 C.ar    1  UNL1        0.0147
      7 C          65.0002   91.5152   12.6781 C.2     1  UNL1        0.0158
      8 C          64.6131   91.9399   11.2925 C.2     1  UNL1        0.0487
      9 C          65.0790   93.2604   10.7551 C.2     1  UNL1        0.2355
     10 N          65.9323   94.1565   11.6032 N.2     1  UNL1       -0.0325
     11 C          66.3194   93.7318   12.9888 C.2     1  UNL1        0.3799
     12 N          67.1445   94.3987   14.0492 N.2     1  UNL1       -0.0106
     13 C          67.1884   93.4903   15.2420 C.2     1  UNL1        0.3351
     14 N          66.3905   92.2619   14.9188 N.2     1  UNL1       -0.2103
     15 C          65.8534   92.4112   13.5262 C.3     1  UNL1        0.2404
     16 N          62.6727   83.7000   14.4819 N.am    1  UNL1       -0.2681
     17 C          63.1387   85.0205   13.9445 C.2     1  UNL1        0.3082
     18 O          63.6072   85.1289   12.5237 O.2     1  UNL1       -0.2522
     19 N          63.1362   86.2329   14.8279 N.am    1  UNL1       -0.2681
     20 H          62.3652   83.6289   15.4145 H       1  UNL1        0.1564
     21 H          62.8287   86.1618   15.7604 H       1  UNL1        0.1564
     22 C          62.6801   80.0631   11.8318 C.ar    1  UNL1        0.1388
     23 C          63.1534   81.3821   11.2966 C.ar    1  UNL1        0.0382
     24 C          63.1509   82.5943   12.1800 C.ar    1  UNL1        0.0178
     25 C          62.6752   82.4876   13.5985 C.ar    1  UNL1        0.0518
     26 C          62.2019   81.1688   14.1338 C.ar    1  UNL1        0.0178
     27 C          62.2043   79.9564   13.2504 C.ar    1  UNL1        0.0382
     28 C          62.8215   79.0057    9.4629 C.3     1  UNL1        0.2525
     29 O          62.6826   78.8509   10.9485 O.3     1  UNL1       -0.4714
@<TRIPOS>BOND
     1    28    29    1
     2    29    22    1
     3    22    23   ar
     4    23    24   ar
     5    24    25   ar
     6    25    16    1
     7    16    17   am
     8    17    18    2
     9    17    19   am
    10    19     1    1
    11     1     2   ar
    12     2     3   ar
    13     3     4   ar
    14     4     7    1
    15     7     8    2
    16     8     9    1
    17     9    10    2
    18    10    11    1
    19    11    12    2
    20    12    13    1
    21    13    14    2
    22    14    15    1
    23     4     5   ar
    24     5     6   ar
    25    25    26   ar
    26    26    27   ar
    27    27    22   ar
    28     6     1   ar
    29    15     7    1
    30    15    11    1
    31    16    20    1
    32    19    21    1
@<TRIPOS>MOLECULE
*****
 29 32 0 0 0
SMALL
GASTEIGER

@<TRIPOS>ATOM
      1 C          62.6400   90.2321   12.9874 C.ar    1  UNL1        0.0516
      2 C          63.4473   91.2468   12.2331 C.ar    1  UNL1        0.0147
      3 C          64.6849   91.8287   12.8489 C.ar    1  UNL1        0.0010
      4 C          65.1155   91.3961   14.2192 C.ar    1  UNL1       -0.0014
      5 C          64.3083   90.3815   14.9735 C.ar    1  UNL1        0.0010
      6 C          63.0706   89.7995   14.3575 C.ar    1  UNL1        0.0147
      7 C          66.3533   91.9780   14.8350 C.2     1  UNL1        0.0158
      8 C          66.2860   92.6228   16.1877 C.2     1  UNL1        0.0487
      9 C          67.5236   93.2047   16.8036 C.2     1  UNL1        0.2355
     10 N          68.8288   93.1420   16.0668 N.2     1  UNL1       -0.0325
     11 C          68.8960   92.4973   14.7141 C.2     1  UNL1        0.3799
     12 N          70.0321   92.2887   13.7571 N.2     1  UNL1       -0.0106
     13 C          69.4964   91.5778   12.5497 C.2     1  UNL1        0.3351
     14 N          68.0294   91.3470   12.7605 N.2     1  UNL1       -0.2103
     15 C          67.6583   91.9153   14.0982 C.3     1  UNL1        0.2404
     16 N          60.2771   88.1209   10.5981 N.am    1  UNL1       -0.2681
     17 C          61.5148   88.7028   11.2139 C.2     1  UNL1        0.3082
     18 O          62.8650   88.3374   10.6723 O.2     1  UNL1       -0.2522
     19 N          61.4023   89.6502   12.3715 N.am    1  UNL1       -0.2681
     20 H          59.3909   88.3607   10.9536 H       1  UNL1        0.1564
     21 H          60.5161   89.8901   12.7270 H       1  UNL1        0.1564
     22 C          60.6143   85.2788    7.1254 C.ar    1  UNL1        0.1388
     23 C          59.3789   86.1126    7.2951 C.ar    1  UNL1        0.0382
     24 C          59.2665   87.0599    8.4526 C.ar    1  UNL1        0.0178
     25 C          60.3895   87.1735    9.4405 C.ar    1  UNL1        0.0518
     26 C          61.6249   86.3398    9.2710 C.ar    1  UNL1        0.0178
     27 C          61.7373   85.3924    8.1134 C.ar    1  UNL1        0.0382
     28 C          62.0388   84.1644    5.2603 C.3     1  UNL1        0.2525
     29 O          60.7267   84.3315    5.9680 O.3     1  UNL1       -0.4714
@<TRIPOS>BOND
     1    28    29    1
     2    29    22    1
     3    22    23   ar
     4    23    24   ar
     5    24    25   ar
     6    25    16    1
     7    16    17   am
     8    17    18    2
     9    17    19   am
    10    19     1    1
    11     1     2   ar
    12     2     3   ar
    13     3     4   ar
    14     4     7    1
    15     7     8    2
    16     8     9    1
    17     9    10    2
    18    10    11    1
    19    11    12    2
    20    12    13    1
    21    13    14    2
    22    14    15    1
    23     4     5   ar
    24     5     6   ar
    25    25    26   ar
    26    26    27   ar
    27    27    22   ar
    28     6     1   ar
    29    15     7    1
    30    15    11    1
    31    16    20    1
    32    19    21    1
