@<TRIPOS>MOLECULE
*****
 35 37 0 0 0
SMALL
GASTEIGER

@<TRIPOS>ATOM
      1 C          63.9130   90.4984   13.7835 C.ar    1  UNL1        0.0708
      2 C          65.1576   91.3341   13.7336 C.ar    1  UNL1        0.0057
      3 C          65.4998   92.0962   12.4878 C.ar    1  UNL1        0.0301
      4 C          64.5974   92.0227   11.2919 C.ar    1  UNL1        0.1663
      5 F          64.9396   92.7849   10.0461 F       1  UNL1       -0.2020
      6 C          63.3528   91.1870   11.3418 C.ar    1  UNL1        0.1805
      7 F          62.4503   91.1135   10.1459 F       1  UNL1       -0.2005
      8 C          63.0106   90.4249   12.5876 C.ar    1  UNL1        0.0829
      9 O          63.0349   90.4607   16.2283 O.2     1  UNL1       -0.2680
     10 C          63.5709   89.7362   15.0293 C.2     1  UNL1        0.2692
     11 N          63.7647   88.2496   15.0760 N.am    1  UNL1       -0.1896
     12 H          64.1164   87.7740   14.2890 H       1  UNL1        0.1828
     13 O          63.4225   87.4874   16.3218 O.3     1  UNL1       -0.2635
     14 C          63.4703   85.9881   16.3208 C.3     1  UNL1        0.2026
     15 C          64.2428   85.2632   15.2589 C.3     1  UNL1        0.1719
     16 O          65.6696   85.6352   14.9834 O.3     1  UNL1       -0.3794
     17 H          65.7054   86.5355   14.6241 H       1  UNL1        0.2105
     18 N          61.7659   89.5891   12.6375 N.pl3   1  UNL1       -0.3088
     19 H          61.2082   89.5848   13.4487 H       1  UNL1        0.1523
     20 C          61.3712   88.7602   11.4514 C.ar    1  UNL1        0.0762
     21 C          62.1790   87.5528   11.0779 C.ar    1  UNL1        0.0173
     22 C          61.7842   86.7237    9.8917 C.ar    1  UNL1        0.0072
     23 C          60.5815   87.1022    9.0791 C.ar    1  UNL1        0.0324
     24 I          60.1868   86.2732    7.8930 I       1  UNL1       -0.0424
     25 C          59.7737   88.3096    9.4526 C.ar    1  UNL1        0.0367
     26 C          60.1684   89.1385   10.6387 C.ar    1  UNL1        0.1538
     27 F          59.3605   90.3459   11.0122 F       1  UNL1       -0.2028
     28 C          66.7445   92.9320   12.4379 C.3     1  UNL1        0.1527
     29 N          66.9472   93.9094   11.3183 N.am    1  UNL1       -0.1636
     30 O          66.3864   95.2968   11.4232 O.3     1  UNL1       -0.2627
     31 C          66.5891   96.2742   10.3036 C.3     1  UNL1        0.1718
     32 C          67.3526   95.8644    9.0791 C.3     1  UNL1        0.0443
     33 C          67.9133   94.4771    8.9743 C.3     1  UNL1        0.0901
     34 C          67.7106   93.4996   10.0939 C.2     1  UNL1        0.2481
     35 O          68.2714   92.1123    9.9891 O.2     1  UNL1       -0.2728
@<TRIPOS>BOND
     1     9    10    2
     2    10    11   am
     3    11    13    1
     4    13    14    1
     5    14    15    1
     6    15    16    1
     7    10     1    1
     8     1     2   ar
     9     2     3   ar
    10     3    28    1
    11    28    29    1
    12    29    30    1
    13    30    31    1
    14    31    32    1
    15    32    33    1
    16    33    34    1
    17    34    35    2
    18     3     4   ar
    19     4     5    1
    20     4     6   ar
    21     6     7    1
    22     6     8   ar
    23     8    18    1
    24    18    20    1
    25    20    21   ar
    26    21    22   ar
    27    22    23   ar
    28    23    24    1
    29    23    25   ar
    30    25    26   ar
    31    26    27    1
    32     8     1   ar
    33    26    20   ar
    34    34    29   am
    35    11    12    1
    36    16    17    1
    37    18    19    1
@<TRIPOS>MOLECULE
*****
 35 37 0 0 0
SMALL
GASTEIGER

@<TRIPOS>ATOM
      1 C          63.3608   88.4690   12.5822 C.ar    1  UNL1        0.0708
      2 C          64.1760   89.7034   12.8301 C.ar    1  UNL1        0.0057
      3 C          64.0233   90.8958   11.9330 C.ar    1  UNL1        0.0301
      4 C          63.0554   90.8537   10.7878 C.ar    1  UNL1        0.1663
      5 F          62.9027   92.0461    9.8906 F       1  UNL1       -0.2020
      6 C          62.2403   89.6192   10.5399 C.ar    1  UNL1        0.1805
      7 F          61.2723   89.5771    9.3947 F       1  UNL1       -0.2005
      8 C          62.3930   88.4269   11.4370 C.ar    1  UNL1        0.0829
      9 O          63.1012   85.9174   12.9971 O.2     1  UNL1       -0.2680
     10 C          63.5135   87.2766   13.4794 C.2     1  UNL1        0.2692
     11 N          64.0786   87.4434   14.8588 N.am    1  UNL1       -0.1896
     12 H          64.3493   88.3355   15.1753 H       1  UNL1        0.1828
     13 O          64.2313   86.2510   15.7559 O.3     1  UNL1       -0.2635
     14 C          63.2230   85.9907   16.8356 C.3     1  UNL1        0.2026
     15 C          62.5142   87.1381   17.4922 C.3     1  UNL1        0.1719
     16 O          63.1485   88.4972   17.5155 O.3     1  UNL1       -0.3794
     17 H          63.9515   88.4699   18.0590 H       1  UNL1        0.2105
     18 N          61.5777   87.1924   11.1890 N.pl3   1  UNL1       -0.3088
     19 H          60.9963   86.8356   11.8989 H       1  UNL1        0.1523
     20 C          61.6484   86.5015    9.8595 C.ar    1  UNL1        0.0762
     21 C          62.8880   85.7528    9.4683 C.ar    1  UNL1        0.0173
     22 C          62.9586   85.0619    8.1387 C.ar    1  UNL1        0.0072
     23 C          61.7898   85.1196    7.2005 C.ar    1  UNL1        0.0324
     24 I          61.8605   84.4287    5.8710 I       1  UNL1       -0.0424
     25 C          60.5502   85.8683    7.5917 C.ar    1  UNL1        0.0367
     26 C          60.4795   86.5592    8.9212 C.ar    1  UNL1        0.1538
     27 F          59.2400   87.3078    9.3124 F       1  UNL1       -0.2028
     28 C          64.8386   92.1303   12.1810 C.3     1  UNL1        0.1527
     29 N          65.6924   92.2308   13.4101 N.am    1  UNL1       -0.1636
     30 O          65.0513   92.3327   14.7624 O.3     1  UNL1       -0.2627
     31 C          65.9051   92.4332   15.9916 C.3     1  UNL1        0.1718
     32 C          67.4001   92.4318   15.8684 C.3     1  UNL1        0.0443
     33 C          68.0412   92.3299   14.5162 C.3     1  UNL1        0.0901
     34 C          67.1873   92.2294   13.2870 C.2     1  UNL1        0.2481
     35 O          67.8284   92.1275   11.9347 O.2     1  UNL1       -0.2728
@<TRIPOS>BOND
     1     9    10    2
     2    10    11   am
     3    11    13    1
     4    13    14    1
     5    14    15    1
     6    15    16    1
     7    10     1    1
     8     1     2   ar
     9     2     3   ar
    10     3    28    1
    11    28    29    1
    12    29    30    1
    13    30    31    1
    14    31    32    1
    15    32    33    1
    16    33    34    1
    17    34    35    2
    18     3     4   ar
    19     4     5    1
    20     4     6   ar
    21     6     7    1
    22     6     8   ar
    23     8    18    1
    24    18    20    1
    25    20    21   ar
    26    21    22   ar
    27    22    23   ar
    28    23    24    1
    29    23    25   ar
    30    25    26   ar
    31    26    27    1
    32     8     1   ar
    33    26    20   ar
    34    34    29   am
    35    11    12    1
    36    16    17    1
    37    18    19    1
@<TRIPOS>MOLECULE
*****
 35 37 0 0 0
SMALL
GASTEIGER

@<TRIPOS>ATOM
      1 C          62.7217   87.0750   12.2414 C.ar    1  UNL1        0.0708
      2 C          63.2251   85.6801   12.4668 C.ar    1  UNL1        0.0057
      3 C          64.1647   85.3959   13.6010 C.ar    1  UNL1        0.0301
      4 C          64.6008   86.5066   14.5098 C.ar    1  UNL1        0.1663
      5 F          65.5404   86.2225   15.6441 F       1  UNL1       -0.2020
      6 C          64.0974   87.9015   14.2845 C.ar    1  UNL1        0.1805
      7 F          64.5335   89.0123   15.1933 F       1  UNL1       -0.2005
      8 C          63.1578   88.1857   13.1502 C.ar    1  UNL1        0.0829
      9 O          60.4411   87.9732   11.3800 O.2     1  UNL1       -0.2680
     10 C          61.7821   87.3591   11.1072 C.2     1  UNL1        0.2692
     11 N          62.1836   87.0292    9.7001 N.am    1  UNL1       -0.1896
     12 H          63.0638   86.6262    9.5210 H       1  UNL1        0.1828
     13 O          61.2440   87.3134    8.5659 O.3     1  UNL1       -0.2635
     14 C          60.2807   86.2587    8.1078 C.3     1  UNL1        0.2026
     15 C          58.8766   86.6352    7.7379 C.3     1  UNL1        0.1719
     16 O          58.5661   88.0362    7.3009 O.3     1  UNL1       -0.3794
     17 H          58.7073   88.6450    8.0428 H       1  UNL1        0.2105
     18 N          62.6544   89.5806   12.9249 N.pl3   1  UNL1       -0.3088
     19 H          61.7229   89.8096   13.1464 H       1  UNL1        0.1523
     20 C          63.5703   90.6267   12.3621 C.ar    1  UNL1        0.0762
     21 C          64.5792   91.2956   13.2480 C.ar    1  UNL1        0.0173
     22 C          65.4950   92.3417   12.6851 C.ar    1  UNL1        0.0072
     23 C          65.4020   92.7190   11.2363 C.ar    1  UNL1        0.0324
     24 I          66.3179   93.7651   10.6735 I       1  UNL1       -0.0424
     25 C          64.3932   92.0502   10.3504 C.ar    1  UNL1        0.0367
     26 C          63.4773   91.0041   10.9132 C.ar    1  UNL1        0.1538
     27 F          62.4684   90.3353   10.0273 F       1  UNL1       -0.2028
     28 C          64.6681   84.0010   13.8264 C.3     1  UNL1        0.1527
     29 N          63.7649   82.8289   13.5807 N.am    1  UNL1       -0.1636
     30 O          62.7965   82.3932   14.6403 O.3     1  UNL1       -0.2627
     31 C          61.8933   81.2211   14.3947 C.3     1  UNL1        0.1718
     32 C          61.9584   80.4846   13.0895 C.3     1  UNL1        0.0443
     33 C          62.9267   80.9202   12.0300 C.3     1  UNL1        0.0901
     34 C          63.8300   82.0924   12.2757 C.2     1  UNL1        0.2481
     35 O          64.7984   82.5280   11.2161 O.2     1  UNL1       -0.2728
@<TRIPOS>BOND
     1     9    10    2
     2    10    11   am
     3    11    13    1
     4    13    14    1
     5    14    15    1
     6    15    16    1
     7    10     1    1
     8     1     2   ar
     9     2     3   ar
    10     3    28    1
    11    28    29    1
    12    29    30    1
    13    30    31    1
    14    31    32    1
    15    32    33    1
    16    33    34    1
    17    34    35    2
    18     3     4   ar
    19     4     5    1
    20     4     6   ar
    21     6     7    1
    22     6     8   ar
    23     8    18    1
    24    18    20    1
    25    20    21   ar
    26    21    22   ar
    27    22    23   ar
    28    23    24    1
    29    23    25   ar
    30    25    26   ar
    31    26    27    1
    32     8     1   ar
    33    26    20   ar
    34    34    29   am
    35    11    12    1
    36    16    17    1
    37    18    19    1
@<TRIPOS>MOLECULE
*****
 35 37 0 0 0
SMALL
GASTEIGER

@<TRIPOS>ATOM
      1 C          63.5364   90.0988   13.4781 C.ar    1  UNL1        0.0708
      2 C          64.7126   91.0267   13.5522 C.ar    1  UNL1        0.0057
      3 C          65.0277   91.9318   12.3983 C.ar    1  UNL1        0.0301
      4 C          64.1665   91.9091   11.1704 C.ar    1  UNL1        0.1663
      5 F          64.4815   92.8143   10.0165 F       1  UNL1       -0.2020
      6 C          62.9903   90.9813   11.0964 C.ar    1  UNL1        0.1805
      7 F          62.1290   90.9586    9.8684 F       1  UNL1       -0.2005
      8 C          62.6752   90.0761   12.2502 C.ar    1  UNL1        0.0829
      9 O          62.1834   89.5944   15.6380 O.2     1  UNL1       -0.2680
     10 C          63.2214   89.1937   14.6320 C.2     1  UNL1        0.2692
     11 N          63.9443   87.8878   14.7799 N.am    1  UNL1       -0.1896
     12 H          64.6256   87.6247   14.1197 H       1  UNL1        0.1828
     13 O          63.6293   86.9826   15.9338 O.3     1  UNL1       -0.2635
     14 C          63.9588   85.5214   15.8525 C.3     1  UNL1        0.2026
     15 C          64.5633   84.9574   14.6010 C.3     1  UNL1        0.1719
     16 O          66.0202   84.6025   14.5657 O.3     1  UNL1       -0.3794
     17 H          66.5517   85.4092   14.6535 H       1  UNL1        0.2105
     18 N          61.4989   89.1482   12.1762 N.pl3   1  UNL1       -0.3088
     19 H          60.8295   89.1435   12.8980 H       1  UNL1        0.1523
     20 C          61.3426   88.2276   11.0023 C.ar    1  UNL1        0.0762
     21 C          60.3464   88.5459    9.9270 C.ar    1  UNL1        0.0173
     22 C          60.1901   87.6252    8.7531 C.ar    1  UNL1        0.0072
     23 C          61.0300   86.3864    8.6545 C.ar    1  UNL1        0.0324
     24 I          60.8737   85.4658    7.4806 I       1  UNL1       -0.0424
     25 C          62.0263   86.0682    9.7298 C.ar    1  UNL1        0.0367
     26 C          62.1826   86.9887   10.9036 C.ar    1  UNL1        0.1538
     27 F          63.1789   86.6705   11.9789 F       1  UNL1       -0.2028
     28 C          66.2040   92.8597   12.4724 C.3     1  UNL1        0.1527
     29 N          67.1112   92.8267   13.6664 N.am    1  UNL1       -0.1636
     30 O          66.6760   93.4561   14.9566 O.3     1  UNL1       -0.2627
     31 C          67.5832   93.4231   16.1507 C.3     1  UNL1        0.1718
     32 C          68.9256   92.7607   16.0546 C.3     1  UNL1        0.0443
     33 C          69.3608   92.1314   14.7645 C.3     1  UNL1        0.0901
     34 C          68.4536   92.1644   13.5704 C.2     1  UNL1        0.2481
     35 O          68.8888   91.5350   12.2802 O.2     1  UNL1       -0.2728
@<TRIPOS>BOND
     1     9    10    2
     2    10    11   am
     3    11    13    1
     4    13    14    1
     5    14    15    1
     6    15    16    1
     7    10     1    1
     8     1     2   ar
     9     2     3   ar
    10     3    28    1
    11    28    29    1
    12    29    30    1
    13    30    31    1
    14    31    32    1
    15    32    33    1
    16    33    34    1
    17    34    35    2
    18     3     4   ar
    19     4     5    1
    20     4     6   ar
    21     6     7    1
    22     6     8   ar
    23     8    18    1
    24    18    20    1
    25    20    21   ar
    26    21    22   ar
    27    22    23   ar
    28    23    24    1
    29    23    25   ar
    30    25    26   ar
    31    26    27    1
    32     8     1   ar
    33    26    20   ar
    34    34    29   am
    35    11    12    1
    36    16    17    1
    37    18    19    1
@<TRIPOS>MOLECULE
*****
 35 37 0 0 0
SMALL
GASTEIGER

@<TRIPOS>ATOM
      1 C          61.9965   90.0086   11.1400 C.ar    1  UNL1        0.0708
      2 C          62.8514   91.2212   11.3606 C.ar    1  UNL1        0.0057
      3 C          64.0063   91.1610   12.3159 C.ar    1  UNL1        0.0301
      4 C          64.3063   89.8882   13.0505 C.ar    1  UNL1        0.1663
      5 F          65.4612   89.8279   14.0058 F       1  UNL1       -0.2020
      6 C          63.4515   88.6755   12.8299 C.ar    1  UNL1        0.1805
      7 F          63.7515   87.4026   13.5646 F       1  UNL1       -0.2005
      8 C          62.2966   88.7358   11.8746 C.ar    1  UNL1        0.0829
      9 O          59.5904   90.8030   10.5660 O.2     1  UNL1       -0.2680
     10 C          60.8416   90.0688   10.1847 C.2     1  UNL1        0.2692
     11 N          60.9379   89.3949    8.8481 N.am    1  UNL1       -0.1896
     12 H          61.7591   88.9130    8.5978 H       1  UNL1        0.1828
     13 O          59.7830   89.4551    7.8928 O.3     1  UNL1       -0.2635
     14 C          59.1702   88.1872    7.3761 C.3     1  UNL1        0.2026
     15 C          59.3323   86.9087    8.1436 C.3     1  UNL1        0.1719
     16 O          59.5989   85.6250    7.4149 O.3     1  UNL1       -0.3794
     17 H          58.8270   85.3934    6.8750 H       1  UNL1        0.2105
     18 N          61.4417   87.5231   11.6540 N.pl3   1  UNL1       -0.3088
     19 H          60.4606   87.6008   11.6812 H       1  UNL1        0.1523
     20 C          62.0815   86.1919   11.3921 C.ar    1  UNL1        0.0762
     21 C          62.2026   85.1871   12.4992 C.ar    1  UNL1        0.0173
     22 C          62.8425   83.8559   12.2372 C.ar    1  UNL1        0.0072
     23 C          63.3613   83.5296   10.8682 C.ar    1  UNL1        0.0324
     24 I          64.0012   82.1985   10.6063 I       1  UNL1       -0.0424
     25 C          63.2403   84.5345    9.7611 C.ar    1  UNL1        0.0367
     26 C          62.6004   85.8656   10.0230 C.ar    1  UNL1        0.1538
     27 F          62.4794   86.8704    8.9159 F       1  UNL1       -0.2028
     28 C          64.8612   92.3737   12.5364 C.3     1  UNL1        0.1527
     29 N          65.8030   92.4253   13.7028 N.am    1  UNL1       -0.1636
     30 O          65.2658   92.5872   15.0940 O.3     1  UNL1       -0.2627
     31 C          66.2076   92.6388   16.2603 C.3     1  UNL1        0.1718
     32 C          67.6866   92.5285   16.0355 C.3     1  UNL1        0.0443
     33 C          68.2237   92.3667   14.6444 C.3     1  UNL1        0.0901
     34 C          67.2819   92.3150   13.4780 C.2     1  UNL1        0.2481
     35 O          67.8191   92.1531   12.0868 O.2     1  UNL1       -0.2728
@<TRIPOS>BOND
     1     9    10    2
     2    10    11   am
     3    11    13    1
     4    13    14    1
     5    14    15    1
     6    15    16    1
     7    10     1    1
     8     1     2   ar
     9     2     3   ar
    10     3    28    1
    11    28    29    1
    12    29    30    1
    13    30    31    1
    14    31    32    1
    15    32    33    1
    16    33    34    1
    17    34    35    2
    18     3     4   ar
    19     4     5    1
    20     4     6   ar
    21     6     7    1
    22     6     8   ar
    23     8    18    1
    24    18    20    1
    25    20    21   ar
    26    21    22   ar
    27    22    23   ar
    28    23    24    1
    29    23    25   ar
    30    25    26   ar
    31    26    27    1
    32     8     1   ar
    33    26    20   ar
    34    34    29   am
    35    11    12    1
    36    16    17    1
    37    18    19    1
@<TRIPOS>MOLECULE
*****
 35 37 0 0 0
SMALL
GASTEIGER

@<TRIPOS>ATOM
      1 C          63.3691   88.5756   12.6526 C.ar    1  UNL1        0.0708
      2 C          64.1964   89.8044   12.8881 C.ar    1  UNL1        0.0057
      3 C          64.1018   90.9648   11.9423 C.ar    1  UNL1        0.0301
      4 C          63.1798   90.8964   10.7611 C.ar    1  UNL1        0.1663
      5 F          63.0852   92.0568    9.8153 F       1  UNL1       -0.2020
      6 C          62.3525   89.6675   10.5257 C.ar    1  UNL1        0.1805
      7 F          61.4305   89.5991    9.3444 F       1  UNL1       -0.2005
      8 C          62.4472   88.5071   11.4714 C.ar    1  UNL1        0.0829
      9 O          63.9080   87.6356   15.0140 O.2     1  UNL1       -0.2680
     10 C          63.4638   87.4151   13.5984 C.2     1  UNL1        0.2692
     11 N          63.1142   86.0342   13.1286 N.am    1  UNL1       -0.1896
     12 H          62.8226   85.8895   12.1995 H       1  UNL1        0.1828
     13 O          63.2088   84.8738   14.0744 O.3     1  UNL1       -0.2635
     14 C          64.1652   83.7530   13.7930 C.3     1  UNL1        0.2026
     15 C          64.2023   83.1225   12.4324 C.3     1  UNL1        0.1719
     16 O          62.9528   83.0478   11.6061 O.3     1  UNL1       -0.3794
     17 H          62.3131   82.4613   12.0394 H       1  UNL1        0.2105
     18 N          61.6198   87.2782   11.2360 N.pl3   1  UNL1       -0.3088
     19 H          61.0386   86.9316   11.9510 H       1  UNL1        0.1523
     20 C          61.6779   86.5775    9.9110 C.ar    1  UNL1        0.0762
     21 C          62.9157   85.8302    9.5115 C.ar    1  UNL1        0.0173
     22 C          62.9738   85.1294    8.1864 C.ar    1  UNL1        0.0072
     23 C          61.7942   85.1760    7.2610 C.ar    1  UNL1        0.0324
     24 I          61.8523   84.4752    5.9361 I       1  UNL1       -0.0424
     25 C          60.5565   85.9232    7.6606 C.ar    1  UNL1        0.0367
     26 C          60.4983   86.6240    8.9855 C.ar    1  UNL1        0.1538
     27 F          59.2606   87.3713    9.3851 F       1  UNL1       -0.2028
     28 C          64.9291   92.1937   12.1778 C.3     1  UNL1        0.1527
     29 N          65.7883   92.2959   13.4031 N.am    1  UNL1       -0.1636
     30 O          65.1533   92.4380   14.7546 O.3     1  UNL1       -0.2627
     31 C          66.0124   92.5402   15.9800 C.3     1  UNL1        0.1718
     32 C          67.5066   92.5004   15.8537 C.3     1  UNL1        0.0443
     33 C          68.1416   92.3583   14.5022 C.3     1  UNL1        0.0901
     34 C          67.2824   92.2561   13.2769 C.2     1  UNL1        0.2481
     35 O          67.9175   92.1140   11.9254 O.2     1  UNL1       -0.2728
@<TRIPOS>BOND
     1     9    10    2
     2    10    11   am
     3    11    13    1
     4    13    14    1
     5    14    15    1
     6    15    16    1
     7    10     1    1
     8     1     2   ar
     9     2     3   ar
    10     3    28    1
    11    28    29    1
    12    29    30    1
    13    30    31    1
    14    31    32    1
    15    32    33    1
    16    33    34    1
    17    34    35    2
    18     3     4   ar
    19     4     5    1
    20     4     6   ar
    21     6     7    1
    22     6     8   ar
    23     8    18    1
    24    18    20    1
    25    20    21   ar
    26    21    22   ar
    27    22    23   ar
    28    23    24    1
    29    23    25   ar
    30    25    26   ar
    31    26    27    1
    32     8     1   ar
    33    26    20   ar
    34    34    29   am
    35    11    12    1
    36    16    17    1
    37    18    19    1
@<TRIPOS>MOLECULE
*****
 35 37 0 0 0
SMALL
GASTEIGER

@<TRIPOS>ATOM
      1 C          63.7009   89.2723   13.1235 C.ar    1  UNL1        0.0708
      2 C          64.5428   90.5120   13.1894 C.ar    1  UNL1        0.0057
      3 C          64.4830   91.5191   12.0793 C.ar    1  UNL1        0.0301
      4 C          63.5813   91.2865   10.9034 C.ar    1  UNL1        0.1663
      5 F          63.5216   92.2936    9.7934 F       1  UNL1       -0.2020
      6 C          62.7394   90.0469   10.8375 C.ar    1  UNL1        0.1805
      7 F          61.8377   89.8142    9.6616 F       1  UNL1       -0.2005
      8 C          62.7992   89.0398   11.9476 C.ar    1  UNL1        0.0829
      9 O          63.3768   88.6624   15.6281 O.2     1  UNL1       -0.2680
     10 C          63.7607   88.2652   14.2335 C.2     1  UNL1        0.2692
     11 N          64.2043   86.8609   13.9490 N.am    1  UNL1       -0.1896
     12 H          64.4563   86.6002   13.0337 H       1  UNL1        0.1828
     13 O          64.2641   85.8538   15.0590 O.3     1  UNL1       -0.2635
     14 C          63.0109   85.1702   15.5198 C.3     1  UNL1        0.2026
     15 C          62.4325   85.4920   16.8658 C.3     1  UNL1        0.1719
     16 O          61.4518   86.6177   17.0110 O.3     1  UNL1       -0.3794
     17 H          61.8947   87.4591   16.8193 H       1  UNL1        0.2105
     18 N          61.9572   87.8000   11.8816 N.pl3   1  UNL1       -0.3088
     19 H          61.4936   87.4764   12.6876 H       1  UNL1        0.1523
     20 C          61.8216   87.0535   10.5878 C.ar    1  UNL1        0.0762
     21 C          62.9528   86.2032   10.0903 C.ar    1  UNL1        0.0173
     22 C          62.8171   85.4566    8.7964 C.ar    1  UNL1        0.0072
     23 C          61.5503   85.5603    7.9999 C.ar    1  UNL1        0.0324
     24 I          61.4147   84.8137    6.7060 I       1  UNL1       -0.0424
     25 C          60.4191   86.4106    8.4973 C.ar    1  UNL1        0.0367
     26 C          60.5547   87.1571    9.7912 C.ar    1  UNL1        0.1538
     27 F          59.4235   88.0074   10.2887 F       1  UNL1       -0.2028
     28 C          65.3250   92.7588   12.1452 C.3     1  UNL1        0.1527
     29 N          66.3591   93.0200   11.0906 N.am    1  UNL1       -0.1636
     30 O          67.4011   91.9839   10.7889 O.3     1  UNL1       -0.2627
     31 C          68.4352   92.2451    9.7343 C.3     1  UNL1        0.1718
     32 C          68.4274   93.5424    8.9812 C.3     1  UNL1        0.0443
     33 C          67.3854   94.5784    9.2828 C.3     1  UNL1        0.0901
     34 C          66.3513   94.3172   10.3375 C.2     1  UNL1        0.2481
     35 O          65.3094   95.3533   10.6391 O.2     1  UNL1       -0.2728
@<TRIPOS>BOND
     1     9    10    2
     2    10    11   am
     3    11    13    1
     4    13    14    1
     5    14    15    1
     6    15    16    1
     7    10     1    1
     8     1     2   ar
     9     2     3   ar
    10     3    28    1
    11    28    29    1
    12    29    30    1
    13    30    31    1
    14    31    32    1
    15    32    33    1
    16    33    34    1
    17    34    35    2
    18     3     4   ar
    19     4     5    1
    20     4     6   ar
    21     6     7    1
    22     6     8   ar
    23     8    18    1
    24    18    20    1
    25    20    21   ar
    26    21    22   ar
    27    22    23   ar
    28    23    24    1
    29    23    25   ar
    30    25    26   ar
    31    26    27    1
    32     8     1   ar
    33    26    20   ar
    34    34    29   am
    35    11    12    1
    36    16    17    1
    37    18    19    1
@<TRIPOS>MOLECULE
*****
 35 37 0 0 0
SMALL
GASTEIGER

@<TRIPOS>ATOM
      1 C          64.2223   91.1879   13.5126 C.ar    1  UNL1        0.0708
      2 C          62.9682   90.3712   13.4116 C.ar    1  UNL1        0.0057
      3 C          62.3168   90.1592   12.0771 C.ar    1  UNL1        0.0301
      4 C          62.9193   90.7639   10.8438 C.ar    1  UNL1        0.1663
      5 F          62.2679   90.5519    9.5094 F       1  UNL1       -0.2020
      6 C          64.1734   91.5806   10.9449 C.ar    1  UNL1        0.1805
      7 F          64.7761   92.1854    9.7115 F       1  UNL1       -0.2005
      8 C          64.8249   91.7926   12.2793 C.ar    1  UNL1        0.0829
      9 O          64.1648   90.9852   16.1021 O.2     1  UNL1       -0.2680
     10 C          64.8738   91.3998   14.8470 C.2     1  UNL1        0.2692
     11 N          66.2343   92.0265   14.9263 N.am    1  UNL1       -0.1896
     12 H          66.6996   92.2986   14.1026 H       1  UNL1        0.1828
     13 O          66.8858   92.2384   16.2607 O.3     1  UNL1       -0.2635
     14 C          68.3681   92.4515   16.3462 C.3     1  UNL1        0.2026
     15 C          69.1497   92.7894   15.1114 C.3     1  UNL1        0.1719
     16 O          68.8350   92.1055   13.8140 O.3     1  UNL1       -0.3794
     17 H          69.0463   91.1615   13.8866 H       1  UNL1        0.2105
     18 N          66.0790   92.6094   12.3803 N.pl3   1  UNL1       -0.3088
     19 H          66.7061   92.4586   13.1242 H       1  UNL1        0.1523
     20 C          66.3777   93.6558   11.3480 C.ar    1  UNL1        0.0762
     21 C          65.7803   95.0259   11.4742 C.ar    1  UNL1        0.0173
     22 C          66.0791   96.0723   10.4418 C.ar    1  UNL1        0.0072
     23 C          66.9753   95.7487    9.2833 C.ar    1  UNL1        0.0324
     24 I          67.2740   96.7951    8.2510 I       1  UNL1       -0.0424
     25 C          67.5727   94.3785    9.1572 C.ar    1  UNL1        0.0367
     26 C          67.2739   93.3321   10.1895 C.ar    1  UNL1        0.1538
     27 F          67.8713   91.9620   10.0633 F       1  UNL1       -0.2028
     28 C          61.0626   89.3424   11.9761 C.3     1  UNL1        0.1527
     29 N          60.9199   88.3186   10.8891 N.am    1  UNL1       -0.1636
     30 O          59.9720   88.5595    9.7518 O.3     1  UNL1       -0.2627
     31 C          59.8292   87.5357    8.6648 C.3     1  UNL1        0.1718
     32 C          60.6344   86.2711    8.7152 C.3     1  UNL1        0.0443
     33 C          61.5823   86.0303    9.8525 C.3     1  UNL1        0.0901
     34 C          61.7250   87.0541   10.9395 C.2     1  UNL1        0.2481
     35 O          62.6729   86.8132   12.0768 O.2     1  UNL1       -0.2728
@<TRIPOS>BOND
     1     9    10    2
     2    10    11   am
     3    11    13    1
     4    13    14    1
     5    14    15    1
     6    15    16    1
     7    10     1    1
     8     1     2   ar
     9     2     3   ar
    10     3    28    1
    11    28    29    1
    12    29    30    1
    13    30    31    1
    14    31    32    1
    15    32    33    1
    16    33    34    1
    17    34    35    2
    18     3     4   ar
    19     4     5    1
    20     4     6   ar
    21     6     7    1
    22     6     8   ar
    23     8    18    1
    24    18    20    1
    25    20    21   ar
    26    21    22   ar
    27    22    23   ar
    28    23    24    1
    29    23    25   ar
    30    25    26   ar
    31    26    27    1
    32     8     1   ar
    33    26    20   ar
    34    34    29   am
    35    11    12    1
    36    16    17    1
    37    18    19    1
@<TRIPOS>MOLECULE
*****
 35 37 0 0 0
SMALL
GASTEIGER

@<TRIPOS>ATOM
      1 C          61.9784   88.9095   11.7695 C.ar    1  UNL1        0.0708
      2 C          62.3408   90.1469   12.5359 C.ar    1  UNL1        0.0057
      3 C          63.4081   90.0917   13.5885 C.ar    1  UNL1        0.0301
      4 C          64.1131   88.7990   13.8746 C.ar    1  UNL1        0.1663
      5 F          65.1804   88.7437   14.9271 F       1  UNL1       -0.2020
      6 C          63.7507   87.5615   13.1081 C.ar    1  UNL1        0.1805
      7 F          64.4557   86.2687   13.3942 F       1  UNL1       -0.2005
      8 C          62.6834   87.6168   12.0556 C.ar    1  UNL1        0.0829
      9 O          59.5107   88.5398   11.0459 O.2     1  UNL1       -0.2680
     10 C          60.9111   88.9648   10.7170 C.2     1  UNL1        0.2692
     11 N          61.2442   89.4450    9.3356 N.am    1  UNL1       -0.1896
     12 H          62.1634   89.7240    9.1197 H       1  UNL1        0.1828
     13 O          60.1769   89.5003    8.2831 O.3     1  UNL1       -0.2635
     14 C          59.5702   88.2309    7.7628 C.3     1  UNL1        0.2026
     15 C          60.2605   86.9196    7.9948 C.3     1  UNL1        0.1719
     16 O          59.6782   85.6559    7.4344 O.3     1  UNL1       -0.3794
     17 H          58.8298   85.4714    7.8668 H       1  UNL1        0.2105
     18 N          62.3211   86.3793   11.2892 N.pl3   1  UNL1       -0.3088
     19 H          61.9188   86.4549   10.3938 H       1  UNL1        0.1523
     20 C          62.5716   85.0266   11.8870 C.ar    1  UNL1        0.0762
     21 C          62.1567   84.7426   13.3002 C.ar    1  UNL1        0.0173
     22 C          62.4073   83.3898   13.8980 C.ar    1  UNL1        0.0072
     23 C          63.0728   82.3211   13.0826 C.ar    1  UNL1        0.0324
     24 I          63.3233   80.9684   13.6804 I       1  UNL1       -0.0424
     25 C          63.4877   82.6051   11.6694 C.ar    1  UNL1        0.0367
     26 C          63.2372   83.9578   11.0716 C.ar    1  UNL1        0.1538
     27 F          63.6521   84.2418    9.6584 F       1  UNL1       -0.2028
     28 C          63.7704   91.3292   14.3549 C.3     1  UNL1        0.1527
     29 N          65.2120   91.6923   14.5549 N.am    1  UNL1       -0.1636
     30 O          66.2009   91.4742   13.4483 O.3     1  UNL1       -0.2627
     31 C          67.6424   91.8373   13.6483 C.3     1  UNL1        0.1718
     32 C          68.0951   92.4186   14.9549 C.3     1  UNL1        0.0443
     33 C          67.1062   92.6367   16.0615 C.3     1  UNL1        0.0901
     34 C          65.6647   92.2736   15.8615 C.2     1  UNL1        0.2481
     35 O          64.6758   92.4917   16.9681 O.2     1  UNL1       -0.2728
@<TRIPOS>BOND
     1     9    10    2
     2    10    11   am
     3    11    13    1
     4    13    14    1
     5    14    15    1
     6    15    16    1
     7    10     1    1
     8     1     2   ar
     9     2     3   ar
    10     3    28    1
    11    28    29    1
    12    29    30    1
    13    30    31    1
    14    31    32    1
    15    32    33    1
    16    33    34    1
    17    34    35    2
    18     3     4   ar
    19     4     5    1
    20     4     6   ar
    21     6     7    1
    22     6     8   ar
    23     8    18    1
    24    18    20    1
    25    20    21   ar
    26    21    22   ar
    27    22    23   ar
    28    23    24    1
    29    23    25   ar
    30    25    26   ar
    31    26    27    1
    32     8     1   ar
    33    26    20   ar
    34    34    29   am
    35    11    12    1
    36    16    17    1
    37    18    19    1
