@<TRIPOS>MOLECULE
*****
 31 33 0 0 0
SMALL
GASTEIGER

@<TRIPOS>ATOM
      1 N          62.8216   83.2781   14.6301 N.am    1  UNL1       -0.2508
      2 C          63.3429   84.5169   13.9641 C.2     1  UNL1        0.3089
      3 O          63.8658   84.4501   12.5598 O.2     1  UNL1       -0.2522
      4 N          63.3412   85.8226   14.7024 N.am    1  UNL1       -0.2621
      5 C          62.7973   85.7794   16.0997 C.3     1  UNL1        0.0968
      6 C          62.6615   86.9019   17.0856 C.3     1  UNL1        0.0430
      7 C          63.0360   88.3445   16.9176 C.3     1  UNL1        0.0953
      8 N          63.6389   89.0212   15.7223 N.am    1  UNL1       -0.2766
      9 C          63.8990   90.4912   15.8690 C.2     1  UNL1        0.2421
     10 O          63.5580   91.1888   17.1524 O.2     1  UNL1       -0.2734
     11 C          64.0161   88.4223   14.3998 C.3     1  UNL1        0.1149
     12 C          63.8836   86.9988   13.9460 C.3     1  UNL1        0.1164
     13 H          62.4784   83.3219   15.5517 H       1  UNL1        0.1579
     14 C          62.8516   80.3321   12.1030 C.ar    1  UNL1        0.1549
     15 C          62.8658   81.8019   12.4020 C.ar    1  UNL1        0.0734
     16 C          62.8233   81.9723   13.8917 C.ar    1  UNL1        0.1771
     17 N          62.7827   80.6078   14.5133 N.ar    1  UNL1       -0.0621
     18 O          62.8002   79.5941   13.4079 O.2     1  UNL1       -0.3565
     19 C          63.2572   81.0343   10.1428 C.3     1  UNL1        0.0076
     20 C          62.8831   79.7095   10.7386 C.3     1  UNL1        0.0539
     21 C          62.5090   78.3847   11.3344 C.3     1  UNL1        0.0076
     22 C          62.9147   79.0870    9.3743 C.3     1  UNL1        0.0076
     23 C          64.5001   91.2636   14.7322 C.3     1  UNL1        0.1587
     24 N          65.8946   91.8041   14.8473 N.3     1  UNL1       -0.2619
     25 C          66.9230   91.4521   13.8136 C.3     1  UNL1        0.0981
     26 C          68.3175   91.9926   13.9286 C.3     1  UNL1        0.1681
     27 S          68.6836   92.8851   15.0772 S.O2    1  UNL1       -0.0072
     28 O          69.5060   93.7611   15.9752 O.2     1  UNL1       -0.1729
     29 O          69.9976   92.8373   14.3554 O.2     1  UNL1       -0.1729
     30 C          67.6551   93.2372   16.1109 C.3     1  UNL1        0.1681
     31 C          66.2607   92.6967   15.9959 C.3     1  UNL1        0.0981
@<TRIPOS>BOND
     1    19    20    1
     2    20    21    1
     3    20    22    1
     4    20    14    1
     5    14    15   ar
     6    15    16   ar
     7    16     1    1
     8     1     2   am
     9     2     3    2
    10     2     4   am
    11     4     5    1
    12     5     6    1
    13     6     7    1
    14     7     8    1
    15     8     9   am
    16     9    10    2
    17     9    23    1
    18    23    24    1
    19    24    25    1
    20    25    26    1
    21    26    27    1
    22    27    28    2
    23    27    29    2
    24    27    30    1
    25    30    31    1
    26     8    11    1
    27    11    12    1
    28    16    17   ar
    29    17    18   ar
    30    18    14   ar
    31    12     4    1
    32    31    24    1
    33     1    13    1
@<TRIPOS>MOLECULE
*****
 31 33 0 0 0
SMALL
GASTEIGER

@<TRIPOS>ATOM
      1 N          63.8642   89.8665   13.0427 N.am    1  UNL1       -0.2508
      2 C          62.7872   90.4192   12.1570 C.2     1  UNL1        0.3089
      3 O          62.3735   91.8552   12.2860 O.2     1  UNL1       -0.2522
      4 N          62.1237   89.5359   11.1423 N.am    1  UNL1       -0.2621
      5 C          62.6114   88.1181   11.0956 C.3     1  UNL1        0.0968
      6 C          62.1562   87.0014   10.2035 C.3     1  UNL1        0.0430
      7 C          61.1009   87.0267    9.1379 C.3     1  UNL1        0.0953
      8 N          60.2402   88.1749    8.7010 N.am    1  UNL1       -0.2766
      9 C          59.2691   87.8772    7.5972 C.2     1  UNL1        0.2421
     10 O          59.2059   86.5006    7.0049 O.2     1  UNL1       -0.2734
     11 C          60.2222   89.5814    9.2219 C.3     1  UNL1        0.1149
     12 C          61.0605   90.1870   10.3084 C.3     1  UNL1        0.1164
     13 H          64.1357   88.9239   12.9580 H       1  UNL1        0.1579
     14 C          66.1341   92.1980   15.1588 C.ar    1  UNL1        0.1549
     15 C          65.8650   91.4127   13.9093 C.ar    1  UNL1        0.0734
     16 C          64.5276   90.7498   14.0574 C.ar    1  UNL1        0.1771
     17 N          63.9701   91.1254   15.3984 N.ar    1  UNL1       -0.0621
     18 O          64.9629   92.0203   16.0790 O.2     1  UNL1       -0.3565
     19 C          67.7866   92.0226   16.4773 C.3     1  UNL1        0.0076
     20 C          67.3591   93.0170   15.4388 C.3     1  UNL1        0.0539
     21 C          66.9317   94.0114   14.4003 C.3     1  UNL1        0.0076
     22 C          68.5842   93.8360   15.7188 C.3     1  UNL1        0.0076
     23 C          58.3612   88.9562    7.0857 C.3     1  UNL1        0.1587
     24 N          58.8723   89.9586    6.0936 N.3     1  UNL1       -0.2619
     25 C          57.9340   90.9602    5.4885 C.3     1  UNL1        0.0981
     26 C          58.4450   91.9626    4.4963 C.3     1  UNL1        0.1681
     27 S          59.8942   91.9632    4.1094 S.O2    1  UNL1       -0.0072
     28 O          61.1717   92.3595    3.4305 O.2     1  UNL1       -0.1729
     29 O          59.3997   93.1025    3.2684 O.2     1  UNL1       -0.1729
     30 C          60.8325   90.9615    4.7147 C.3     1  UNL1        0.1681
     31 C          60.3215   89.9592    5.7067 C.3     1  UNL1        0.0981
@<TRIPOS>BOND
     1    19    20    1
     2    20    21    1
     3    20    22    1
     4    20    14    1
     5    14    15   ar
     6    15    16   ar
     7    16     1    1
     8     1     2   am
     9     2     3    2
    10     2     4   am
    11     4     5    1
    12     5     6    1
    13     6     7    1
    14     7     8    1
    15     8     9   am
    16     9    10    2
    17     9    23    1
    18    23    24    1
    19    24    25    1
    20    25    26    1
    21    26    27    1
    22    27    28    2
    23    27    29    2
    24    27    30    1
    25    30    31    1
    26     8    11    1
    27    11    12    1
    28    16    17   ar
    29    17    18   ar
    30    18    14   ar
    31    12     4    1
    32    31    24    1
    33     1    13    1
@<TRIPOS>MOLECULE
*****
 31 33 0 0 0
SMALL
GASTEIGER

@<TRIPOS>ATOM
      1 N          62.2117   87.8617   11.3895 N.am    1  UNL1       -0.2508
      2 C          62.9036   89.1758   11.1797 C.2     1  UNL1        0.3089
      3 O          62.8941   89.8207    9.8254 O.2     1  UNL1       -0.2522
      4 N          63.6052   89.8452   12.3241 N.am    1  UNL1       -0.2621
      5 C          63.5546   89.1164   13.6343 C.3     1  UNL1        0.0968
      6 C          64.1510   89.5173   14.9511 C.3     1  UNL1        0.0430
      7 C          64.9451   90.7457   15.2828 C.3     1  UNL1        0.0953
      8 N          65.3392   91.8769   14.3798 N.am    1  UNL1       -0.2766
      9 C          66.1422   92.9706   15.0191 C.2     1  UNL1        0.2421
     10 O          66.4999   92.8864   16.4734 O.2     1  UNL1       -0.2734
     11 C          65.0363   92.0588   12.9220 C.3     1  UNL1        0.1149
     12 C          64.2646   91.1546   12.0072 C.3     1  UNL1        0.1164
     13 H          62.2180   87.4384   12.2783 H       1  UNL1        0.1579
     14 C          61.0874   85.9006    8.2342 C.ar    1  UNL1        0.1549
     15 C          62.1607   86.3753    9.1684 C.ar    1  UNL1        0.0734
     16 C          61.5100   87.1923   10.2449 C.ar    1  UNL1        0.1771
     17 N          60.0346   87.2226    9.9761 N.ar    1  UNL1       -0.0621
     18 O          59.7735   86.4242    8.7335 O.2     1  UNL1       -0.3565
     19 C          59.8568   85.2566    6.6308 C.3     1  UNL1        0.0076
     20 C          61.2922   85.0513    7.0148 C.3     1  UNL1        0.0539
     21 C          62.7276   84.8460    7.3988 C.3     1  UNL1        0.0076
     22 C          61.4969   84.2020    5.7954 C.3     1  UNL1        0.0076
     23 C          66.5875   94.1486   14.2042 C.3     1  UNL1        0.1587
     24 N          66.8605   93.9862   12.7381 N.3     1  UNL1       -0.2619
     25 C          66.3608   95.0117   11.7642 C.3     1  UNL1        0.0981
     26 C          66.6338   94.8493   10.2981 C.3     1  UNL1        0.1681
     27 S          67.4065   93.6615    9.8062 S.O2    1  UNL1       -0.0072
     28 O          68.0878   92.7157    8.8621 O.2     1  UNL1       -0.1729
     29 O          67.1434   94.3585    8.5043 O.2     1  UNL1       -0.1729
     30 C          67.9062   92.6360   10.7802 C.3     1  UNL1        0.1681
     31 C          67.6332   92.7983   12.2461 C.3     1  UNL1        0.0981
@<TRIPOS>BOND
     1    19    20    1
     2    20    21    1
     3    20    22    1
     4    20    14    1
     5    14    15   ar
     6    15    16   ar
     7    16     1    1
     8     1     2   am
     9     2     3    2
    10     2     4   am
    11     4     5    1
    12     5     6    1
    13     6     7    1
    14     7     8    1
    15     8     9   am
    16     9    10    2
    17     9    23    1
    18    23    24    1
    19    24    25    1
    20    25    26    1
    21    26    27    1
    22    27    28    2
    23    27    29    2
    24    27    30    1
    25    30    31    1
    26     8    11    1
    27    11    12    1
    28    16    17   ar
    29    17    18   ar
    30    18    14   ar
    31    12     4    1
    32    31    24    1
    33     1    13    1
@<TRIPOS>MOLECULE
*****
 31 33 0 0 0
SMALL
GASTEIGER

@<TRIPOS>ATOM
      1 N          62.8251   83.2929   14.6820 N.am    1  UNL1       -0.2508
      2 C          63.4007   84.5171   14.0341 C.2     1  UNL1        0.3089
      3 O          63.9644   84.4366   12.6464 O.2     1  UNL1       -0.2522
      4 N          63.4126   85.8220   14.7738 N.am    1  UNL1       -0.2621
      5 C          62.8250   85.7931   16.1537 C.3     1  UNL1        0.0968
      6 C          62.6902   86.9183   17.1366 C.3     1  UNL1        0.0430
      7 C          63.1096   88.3501   16.9822 C.3     1  UNL1        0.0953
      8 N          63.7675   89.0105   15.8070 N.am    1  UNL1       -0.2766
      9 C          64.0635   90.4726   15.9636 C.2     1  UNL1        0.2421
     10 O          63.7028   91.1786   17.2369 O.2     1  UNL1       -0.2734
     11 C          64.1683   88.4021   14.4958 C.3     1  UNL1        0.1149
     12 C          64.0103   86.9830   14.0361 C.3     1  UNL1        0.1164
     13 H          62.4551   83.3457   15.5928 H       1  UNL1        0.1579
     14 C          62.8324   80.3493   12.1519 C.ar    1  UNL1        0.1549
     15 C          62.8669   81.8185   12.4527 C.ar    1  UNL1        0.0734
     16 C          62.8132   81.9880   13.9421 C.ar    1  UNL1        0.1771
     17 N          62.7455   80.6236   14.5618 N.ar    1  UNL1       -0.0621
     18 O          62.7574   79.6110   13.4554 O.2     1  UNL1       -0.3565
     19 C          63.2355   81.0544   10.1922 C.3     1  UNL1        0.0076
     20 C          62.8669   79.7277   10.7871 C.3     1  UNL1        0.0539
     21 C          62.4983   78.4010   11.3821 C.3     1  UNL1        0.0076
     22 C          62.9013   79.1061    9.4224 C.3     1  UNL1        0.0076
     23 C          64.7204   91.2286   14.8469 C.3     1  UNL1        0.1587
     24 N          64.1332   91.1889   13.4671 N.3     1  UNL1       -0.2619
     25 C          62.8392   90.4706   13.2232 C.3     1  UNL1        0.0981
     26 C          62.2519   90.4308   11.8435 C.3     1  UNL1        0.1681
     27 S          62.9586   91.1095   10.7078 S.O2    1  UNL1       -0.0072
     28 O          63.2513   91.5975    9.3199 O.2     1  UNL1       -0.1729
     29 O          61.7663   90.5606    9.9818 O.2     1  UNL1       -0.1729
     30 C          64.2527   91.8278   10.9517 C.3     1  UNL1        0.1681
     31 C          64.8399   91.8676   12.3313 C.3     1  UNL1        0.0981
@<TRIPOS>BOND
     1    19    20    1
     2    20    21    1
     3    20    22    1
     4    20    14    1
     5    14    15   ar
     6    15    16   ar
     7    16     1    1
     8     1     2   am
     9     2     3    2
    10     2     4   am
    11     4     5    1
    12     5     6    1
    13     6     7    1
    14     7     8    1
    15     8     9   am
    16     9    10    2
    17     9    23    1
    18    23    24    1
    19    24    25    1
    20    25    26    1
    21    26    27    1
    22    27    28    2
    23    27    29    2
    24    27    30    1
    25    30    31    1
    26     8    11    1
    27    11    12    1
    28    16    17   ar
    29    17    18   ar
    30    18    14   ar
    31    12     4    1
    32    31    24    1
    33     1    13    1
@<TRIPOS>MOLECULE
*****
 31 33 0 0 0
SMALL
GASTEIGER

@<TRIPOS>ATOM
      1 N          63.2634   84.0832   14.0274 N.am    1  UNL1       -0.2508
      2 C          63.2237   85.2130   13.0415 C.2     1  UNL1        0.3089
      3 O          62.8535   84.9485   11.6122 O.2     1  UNL1       -0.2522
      4 N          63.5542   86.6073   13.4849 N.am    1  UNL1       -0.2621
      5 C          63.9109   86.7621   14.9337 C.3     1  UNL1        0.0968
      6 C          64.2858   88.0104   15.6763 C.3     1  UNL1        0.0430
      7 C          64.3967   89.4119   15.1536 C.3     1  UNL1        0.0953
      8 N          64.1600   89.9115   13.7592 N.am    1  UNL1       -0.2766
      9 C          64.3551   91.3845   13.5537 C.2     1  UNL1        0.2421
     10 O          64.7615   92.2551   14.7056 O.2     1  UNL1       -0.2734
     11 C          63.7540   89.1329   12.5430 C.3     1  UNL1        0.1149
     12 C          63.4844   87.6624   12.4211 C.3     1  UNL1        0.1164
     13 H          63.5064   84.2568   14.9655 H       1  UNL1        0.1579
     14 C          62.7189   80.6878   12.2271 C.ar    1  UNL1        0.1549
     15 C          63.2153   82.1034   12.2321 C.ar    1  UNL1        0.0734
     16 C          62.9329   82.6888   13.5839 C.ar    1  UNL1        0.1771
     17 N          62.2618   81.6352   14.4144 N.ar    1  UNL1       -0.0621
     18 O          62.1296   80.3986   13.5759 O.2     1  UNL1       -0.3565
     19 C          63.1784   80.8579   10.1632 C.3     1  UNL1        0.0076
     20 C          62.7978   79.7298   11.0756 C.3     1  UNL1        0.0539
     21 C          62.4172   78.6017   11.9880 C.3     1  UNL1        0.0076
     22 C          62.8768   78.7718    9.9241 C.3     1  UNL1        0.0076
     23 C          64.1438   91.9869   12.1963 C.3     1  UNL1        0.1587
     24 N          65.3090   92.5441   11.4334 N.3     1  UNL1       -0.2619
     25 C          65.1243   93.7452   10.5541 C.3     1  UNL1        0.0981
     26 C          66.2894   94.3026    9.7912 C.3     1  UNL1        0.1681
     27 S          67.6392   93.6587    9.9077 S.O2    1  UNL1       -0.0072
     28 O          69.1012   93.4008    9.6928 O.2     1  UNL1       -0.1729
     29 O          67.9623   94.7703    8.9537 O.2     1  UNL1       -0.1729
     30 C          67.8238   92.4575   10.7870 C.3     1  UNL1        0.1681
     31 C          66.6588   91.9003   11.5498 C.3     1  UNL1        0.0981
@<TRIPOS>BOND
     1    19    20    1
     2    20    21    1
     3    20    22    1
     4    20    14    1
     5    14    15   ar
     6    15    16   ar
     7    16     1    1
     8     1     2   am
     9     2     3    2
    10     2     4   am
    11     4     5    1
    12     5     6    1
    13     6     7    1
    14     7     8    1
    15     8     9   am
    16     9    10    2
    17     9    23    1
    18    23    24    1
    19    24    25    1
    20    25    26    1
    21    26    27    1
    22    27    28    2
    23    27    29    2
    24    27    30    1
    25    30    31    1
    26     8    11    1
    27    11    12    1
    28    16    17   ar
    29    17    18   ar
    30    18    14   ar
    31    12     4    1
    32    31    24    1
    33     1    13    1
@<TRIPOS>MOLECULE
*****
 31 33 0 0 0
SMALL
GASTEIGER

@<TRIPOS>ATOM
      1 N          60.6963   87.1208    7.8915 N.am    1  UNL1       -0.2508
      2 C          60.7162   86.9315    9.3793 C.2     1  UNL1        0.3089
      3 O          59.8192   87.7579   10.2526 O.2     1  UNL1       -0.2522
      4 N          61.6330   85.9159    9.9940 N.am    1  UNL1       -0.2621
      5 C          62.4871   85.1438    9.0324 C.3     1  UNL1        0.0968
      6 C          63.4937   84.0717    9.3283 C.3     1  UNL1        0.0430
      7 C          63.8947   83.5070   10.6587 C.3     1  UNL1        0.0953
      8 N          63.3884   83.8748   12.0220 N.am    1  UNL1       -0.2766
      9 C          63.9947   83.1193   13.1672 C.2     1  UNL1        0.2421
     10 O          65.0375   82.0730   12.9071 O.2     1  UNL1       -0.2734
     11 C          62.3558   84.8982   12.3914 C.3     1  UNL1        0.1149
     12 C          61.5747   85.8066   11.4888 C.3     1  UNL1        0.1164
     13 H          61.2850   86.5784    7.3184 H       1  UNL1        0.1579
     14 C          58.9545   90.0248    5.9944 C.ar    1  UNL1        0.1549
     15 C          60.1887   89.2599    6.3710 C.ar    1  UNL1        0.0734
     16 C          59.7794   88.1365    7.2768 C.ar    1  UNL1        0.1771
     17 N          58.2923   88.2071    7.4601 N.ar    1  UNL1       -0.0621
     18 O          57.7825   89.3741    6.6675 O.2     1  UNL1       -0.3565
     19 C          57.4042   91.2286    5.1896 C.3     1  UNL1        0.0076
     20 C          58.9016   91.2290    5.1015 C.3     1  UNL1        0.0539
     21 C          60.3990   91.2294    5.0134 C.3     1  UNL1        0.0076
     22 C          58.8488   92.4331    4.2086 C.3     1  UNL1        0.0076
     23 C          63.5583   83.4102   14.5725 C.3     1  UNL1        0.1587
     24 N          63.5648   84.8207   15.0831 N.3     1  UNL1       -0.2619
     25 C          62.8264   85.1659   16.3423 C.3     1  UNL1        0.0981
     26 C          62.8329   86.5763   16.8529 C.3     1  UNL1        0.1681
     27 S          63.5778   87.6415   16.1044 S.O2    1  UNL1       -0.0072
     28 O          64.1334   88.9891   15.7504 O.2     1  UNL1       -0.1729
     29 O          63.0323   88.4547   17.2406 O.2     1  UNL1       -0.1729
     30 C          64.3163   87.2963   14.8452 C.3     1  UNL1        0.1681
     31 C          64.3098   85.8859   14.3346 C.3     1  UNL1        0.0981
@<TRIPOS>BOND
     1    19    20    1
     2    20    21    1
     3    20    22    1
     4    20    14    1
     5    14    15   ar
     6    15    16   ar
     7    16     1    1
     8     1     2   am
     9     2     3    2
    10     2     4   am
    11     4     5    1
    12     5     6    1
    13     6     7    1
    14     7     8    1
    15     8     9   am
    16     9    10    2
    17     9    23    1
    18    23    24    1
    19    24    25    1
    20    25    26    1
    21    26    27    1
    22    27    28    2
    23    27    29    2
    24    27    30    1
    25    30    31    1
    26     8    11    1
    27    11    12    1
    28    16    17   ar
    29    17    18   ar
    30    18    14   ar
    31    12     4    1
    32    31    24    1
    33     1    13    1
@<TRIPOS>MOLECULE
*****
 31 33 0 0 0
SMALL
GASTEIGER

@<TRIPOS>ATOM
      1 N          62.5971   83.7395   11.8740 N.am    1  UNL1       -0.2508
      2 C          63.1770   84.5836   12.9700 C.2     1  UNL1        0.3089
      3 O          63.7194   83.9350   14.2090 O.2     1  UNL1       -0.2522
      4 N          63.2145   86.0763   12.8270 N.am    1  UNL1       -0.2621
      5 C          62.6469   86.6222   11.5503 C.3     1  UNL1        0.0968
      6 C          62.5393   88.0524   11.1109 C.3     1  UNL1        0.0430
      7 C          62.9726   89.2897   11.8397 C.3     1  UNL1        0.0953
      8 N          63.6205   89.4027   13.1878 N.am    1  UNL1       -0.2766
      9 C          63.9354   90.7965   13.6438 C.2     1  UNL1        0.2421
     10 O          63.6014   91.9662   12.7663 O.2     1  UNL1       -0.2734
     11 C          63.9953   88.3060   14.1401 C.3     1  UNL1        0.1149
     12 C          63.8145   86.8256   13.9795 C.3     1  UNL1        0.1164
     13 H          62.2411   84.1652   11.0608 H       1  UNL1        0.1579
     14 C          62.6841   79.8758   11.5132 C.ar    1  UNL1        0.1549
     15 C          62.8324   81.2498   10.9299 C.ar    1  UNL1        0.0734
     16 C          62.5596   82.2467   12.0170 C.ar    1  UNL1        0.1771
     17 N          62.2428   81.4889   13.2721 N.ar    1  UNL1       -0.0621
     18 O          62.3197   80.0237   12.9608 O.2     1  UNL1       -0.3565
     19 C          63.0388   79.3355    9.4927 C.3     1  UNL1        0.0076
     20 C          62.8680   78.5813   10.7780 C.3     1  UNL1        0.0539
     21 C          62.6972   77.8271   12.0633 C.3     1  UNL1        0.0076
     22 C          63.0518   77.2868   10.0428 C.3     1  UNL1        0.0076
     23 C          64.5844   91.0206   14.9775 C.3     1  UNL1        0.1587
     24 N          65.9483   91.6406   15.0532 N.3     1  UNL1       -0.2619
     25 C          66.9659   91.3461   13.9913 C.3     1  UNL1        0.0981
     26 C          68.3297   91.9661   14.0669 C.3     1  UNL1        0.1681
     27 S          68.6759   92.8804   15.2045 S.O2    1  UNL1       -0.0072
     28 O          69.4714   93.8040   16.0787 O.2     1  UNL1       -0.1729
     29 O          69.9698   92.9067   14.4462 O.2     1  UNL1       -0.1729
     30 C          67.6582   93.1749   16.2664 C.3     1  UNL1        0.1681
     31 C          66.2944   92.5550   16.1908 C.3     1  UNL1        0.0981
@<TRIPOS>BOND
     1    19    20    1
     2    20    21    1
     3    20    22    1
     4    20    14    1
     5    14    15   ar
     6    15    16   ar
     7    16     1    1
     8     1     2   am
     9     2     3    2
    10     2     4   am
    11     4     5    1
    12     5     6    1
    13     6     7    1
    14     7     8    1
    15     8     9   am
    16     9    10    2
    17     9    23    1
    18    23    24    1
    19    24    25    1
    20    25    26    1
    21    26    27    1
    22    27    28    2
    23    27    29    2
    24    27    30    1
    25    30    31    1
    26     8    11    1
    27    11    12    1
    28    16    17   ar
    29    17    18   ar
    30    18    14   ar
    31    12     4    1
    32    31    24    1
    33     1    13    1
@<TRIPOS>MOLECULE
*****
 31 33 0 0 0
SMALL
GASTEIGER

@<TRIPOS>ATOM
      1 N          65.5938   93.0297   12.5343 N.am    1  UNL1       -0.2508
      2 C          64.8298   91.8776   11.9523 C.2     1  UNL1        0.3089
      3 O          64.2895   91.9650   10.5557 O.2     1  UNL1       -0.2522
      4 N          64.6059   90.6380   12.7668 N.am    1  UNL1       -0.2621
      5 C          65.1874   90.6541   14.1495 C.3     1  UNL1        0.0968
      6 C          65.1367   89.5824   15.1978 C.3     1  UNL1        0.0430
      7 C          64.4922   88.2302   15.1224 C.3     1  UNL1        0.0953
      8 N          63.7391   87.6154   13.9801 N.am    1  UNL1       -0.2766
      9 C          63.2107   86.2319   14.2183 C.2     1  UNL1        0.2421
     10 O          63.4500   85.5541   15.5349 O.2     1  UNL1       -0.2734
     11 C          63.4445   88.2012   12.6310 C.3     1  UNL1        0.1149
     12 C          63.8303   89.5464   12.0911 C.3     1  UNL1        0.1164
     13 H          65.9485   92.9723   13.4509 H       1  UNL1        0.1579
     14 C          66.0749   95.7786    9.8365 C.ar    1  UNL1        0.1549
     15 C          65.8082   94.3537   10.2221 C.ar    1  UNL1        0.0734
     16 C          65.8177   94.2693   11.7197 C.ar    1  UNL1        0.1771
     17 N          66.0903   95.6419   12.2597 N.ar    1  UNL1       -0.0621
     18 O          66.2493   96.5746   11.0959 O.2     1  UNL1       -0.3565
     19 C          64.7608   96.8556    8.5664 C.3     1  UNL1        0.0076
     20 C          66.1535   96.3135    8.4373 C.3     1  UNL1        0.0539
     21 C          67.5462   95.7714    8.3083 C.3     1  UNL1        0.0076
     22 C          66.2321   96.8483    7.0381 C.3     1  UNL1        0.0076
     23 C          62.4430   85.5263   13.1400 C.3     1  UNL1        0.1587
     24 N          62.4840   84.0297   13.0468 N.3     1  UNL1       -0.2619
     25 C          62.8728   83.3690   11.7576 C.3     1  UNL1        0.0981
     26 C          62.9139   81.8724   11.6643 C.3     1  UNL1        0.1681
     27 S          62.5663   81.0366   12.8604 S.O2    1  UNL1       -0.0072
     28 O          62.3245   79.8253   13.7114 O.2     1  UNL1       -0.1729
     29 O          62.8710   79.9552   11.8666 O.2     1  UNL1       -0.1729
     30 C          62.1775   81.6974   14.1497 C.3     1  UNL1        0.1681
     31 C          62.1364   83.1939   14.2429 C.3     1  UNL1        0.0981
@<TRIPOS>BOND
     1    19    20    1
     2    20    21    1
     3    20    22    1
     4    20    14    1
     5    14    15   ar
     6    15    16   ar
     7    16     1    1
     8     1     2   am
     9     2     3    2
    10     2     4   am
    11     4     5    1
    12     5     6    1
    13     6     7    1
    14     7     8    1
    15     8     9   am
    16     9    10    2
    17     9    23    1
    18    23    24    1
    19    24    25    1
    20    25    26    1
    21    26    27    1
    22    27    28    2
    23    27    29    2
    24    27    30    1
    25    30    31    1
    26     8    11    1
    27    11    12    1
    28    16    17   ar
    29    17    18   ar
    30    18    14   ar
    31    12     4    1
    32    31    24    1
    33     1    13    1
@<TRIPOS>MOLECULE
*****
 31 33 0 0 0
SMALL
GASTEIGER

@<TRIPOS>ATOM
      1 N          63.1549   91.2430   14.0698 N.am    1  UNL1       -0.2508
      2 C          63.4644   90.1172   13.1282 C.2     1  UNL1        0.3089
      3 O          64.8392   89.5179   13.1018 O.2     1  UNL1       -0.2522
      4 N          62.3991   89.5905   12.2129 N.am    1  UNL1       -0.2621
      5 C          61.0606   90.2594   12.3194 C.3     1  UNL1        0.0968
      6 C          59.8055   89.9675   11.5514 C.3     1  UNL1        0.0430
      7 C          59.5790   88.9349   10.4874 C.3     1  UNL1        0.0953
      8 N          60.5514   87.9389    9.9285 N.am    1  UNL1       -0.2766
      9 C          60.0135   87.0323    8.8615 C.2     1  UNL1        0.2421
     10 O          58.5855   87.1582    8.4201 O.2     1  UNL1       -0.2734
     11 C          61.9907   87.7296   10.2956 C.3     1  UNL1        0.1149
     12 C          62.8129   88.4647   11.3123 C.3     1  UNL1        0.1164
     13 H          62.2525   91.6363   14.0871 H       1  UNL1        0.1579
     14 C          66.3414   92.6039   15.8191 C.ar    1  UNL1        0.1549
     15 C          65.6258   92.1176   14.5936 C.ar    1  UNL1        0.0734
     16 C          64.2203   91.7697   14.9851 C.ar    1  UNL1        0.1771
     17 N          64.0671   92.0408   16.4524 N.ar    1  UNL1       -0.0621
     18 O          65.3779   92.5563   16.9678 O.2     1  UNL1       -0.3565
     19 C          67.4649   94.1562   14.9092 C.3     1  UNL1        0.0076
     20 C          67.7696   93.0578   15.8843 C.3     1  UNL1        0.0539
     21 C          68.0742   91.9595   16.8594 C.3     1  UNL1        0.0076
     22 C          69.1977   93.5118   15.9495 C.3     1  UNL1        0.0076
     23 C          60.9037   85.9997    8.2357 C.3     1  UNL1        0.1587
     24 N          61.8429   85.2016    9.0908 N.3     1  UNL1       -0.2619
     25 C          61.5735   85.0475   10.5584 C.3     1  UNL1        0.0981
     26 C          62.5126   84.2495   11.4135 C.3     1  UNL1        0.1681
     27 S          63.7211   83.6056   10.8011 S.O2    1  UNL1       -0.0072
     28 O          64.9889   82.8125   10.6841 O.2     1  UNL1       -0.1729
     29 O          63.8921   83.1760   12.2280 O.2     1  UNL1       -0.1729
     30 C          63.9904   83.7597    9.3335 C.3     1  UNL1        0.1681
     31 C          63.0513   84.5577    8.4784 C.3     1  UNL1        0.0981
@<TRIPOS>BOND
     1    19    20    1
     2    20    21    1
     3    20    22    1
     4    20    14    1
     5    14    15   ar
     6    15    16   ar
     7    16     1    1
     8     1     2   am
     9     2     3    2
    10     2     4   am
    11     4     5    1
    12     5     6    1
    13     6     7    1
    14     7     8    1
    15     8     9   am
    16     9    10    2
    17     9    23    1
    18    23    24    1
    19    24    25    1
    20    25    26    1
    21    26    27    1
    22    27    28    2
    23    27    29    2
    24    27    30    1
    25    30    31    1
    26     8    11    1
    27    11    12    1
    28    16    17   ar
    29    17    18   ar
    30    18    14   ar
    31    12     4    1
    32    31    24    1
    33     1    13    1
