@<TRIPOS>MOLECULE
*****
 30 33 0 0 0
SMALL
GASTEIGER

@<TRIPOS>ATOM
      1 N          62.8875   90.2339   12.0315 N.am    1  UNL1       -0.2645
      2 C          61.9412   90.8238   11.0283 C.3     1  UNL1        0.1400
      3 C          61.3732   89.7015   10.2111 C.ar    1  UNL1        0.0830
      4 N          60.3909   89.6825    9.0777 N.ar    1  UNL1       -0.2524
      5 C          60.0039   88.3799    8.4425 C.ar    1  UNL1        0.0563
      6 C          59.0214   88.3608    7.3090 C.3     1  UNL1        0.0518
      7 C          60.5992   87.0964    8.9406 C.ar    1  UNL1        0.0072
      8 C          61.5815   87.1154   10.0740 C.ar    1  UNL1        0.0048
      9 C          61.9686   88.4180   10.7092 C.ar    1  UNL1        0.0686
     10 C          62.9045   88.7470   11.8343 C.2     1  UNL1        0.2508
     11 O          63.7150   87.7622   12.6237 O.2     1  UNL1       -0.2698
     12 C          62.1769   85.8319   10.5721 C.ar    1  UNL1        0.0106
     13 C          61.8354   85.3293   11.9436 C.ar    1  UNL1        0.0017
     14 C          62.4307   84.0458   12.4418 C.ar    1  UNL1        0.0114
     15 C          63.3675   83.2648   11.5685 C.ar    1  UNL1        0.0585
     16 CL         63.9628   81.9813   12.0666 Cl      1  UNL1       -0.0822
     17 C          63.7089   83.7674   10.1971 C.ar    1  UNL1        0.0228
     18 C          63.1136   85.0510    9.6988 C.ar    1  UNL1        0.0585
     19 CL         63.4551   85.5536    8.3274 Cl      1  UNL1       -0.0822
     20 C          60.2122   85.7938    8.3054 C.3     1  UNL1        0.0934
     21 N          60.6041   85.5057    6.8865 N.3     1  UNL1       -0.3174
     22 H          60.1196   86.1507    6.2622 H       1  UNL1        0.1192
     23 H          60.3475   84.5471    6.6508 H       1  UNL1        0.1192
     24 C          63.6782   90.9969   13.0526 C.3     1  UNL1        0.1433
     25 C          67.0517   93.7081   10.0277 C.3     1  UNL1        0.0754
     26 C          66.3265   93.1667   11.2240 C.ar    1  UNL1        0.1546
     27 C          65.1969   92.1802   11.1983 C.ar    1  UNL1        0.0553
     28 C          64.7759   91.9205   12.6144 C.ar    1  UNL1        0.1204
     29 N          65.6453   92.7467   13.5153 N.ar    1  UNL1       -0.0800
     30 O          66.6036   93.5168   12.6559 O.2     1  UNL1       -0.3580
@<TRIPOS>BOND
     1    25    26    1
     2    26    27   ar
     3    27    28   ar
     4    28    24    1
     5    24     1    1
     6     1     2    1
     7     2     3    1
     8     3     4   ar
     9     4     5   ar
    10     5     6    1
    11     5     7   ar
    12     7    20    1
    13    20    21    1
    14     7     8   ar
    15     8    12    1
    16    12    13   ar
    17    13    14   ar
    18    14    15   ar
    19    15    16    1
    20    15    17   ar
    21    17    18   ar
    22    18    19    1
    23     8     9   ar
    24     9    10    1
    25    10    11    2
    26    28    29   ar
    27    29    30   ar
    28    30    26   ar
    29    10     1   am
    30     9     3   ar
    31    18    12   ar
    32    21    22    1
    33    21    23    1
@<TRIPOS>MOLECULE
*****
 30 33 0 0 0
SMALL
GASTEIGER

@<TRIPOS>ATOM
      1 N          62.9335   90.1492   12.0164 N.am    1  UNL1       -0.2645
      2 C          61.9887   90.7787   11.0360 C.3     1  UNL1        0.1400
      3 C          61.4012   89.6867   10.1919 C.ar    1  UNL1        0.0830
      4 N          60.4117   89.7116    9.0649 N.ar    1  UNL1       -0.2524
      5 C          60.0039   88.4321    8.3965 C.ar    1  UNL1        0.0563
      6 C          59.0144   88.4570    7.2694 C.3     1  UNL1        0.0518
      7 C          60.5856   87.1278    8.8552 C.ar    1  UNL1        0.0072
      8 C          61.5751   87.1029    9.9822 C.ar    1  UNL1        0.0048
      9 C          61.9829   88.3824   10.6506 C.ar    1  UNL1        0.0686
     10 C          62.9299   88.6682   11.7782 C.2     1  UNL1        0.2508
     11 O          63.7325   87.6516   12.5348 O.2     1  UNL1       -0.2698
     12 C          62.1568   85.7986   10.4409 C.ar    1  UNL1        0.0106
     13 C          61.7994   85.2515   11.7912 C.ar    1  UNL1        0.0017
     14 C          62.3810   83.9473   12.2499 C.ar    1  UNL1        0.0114
     15 C          63.3201   83.1899   11.3584 C.ar    1  UNL1        0.0585
     16 CL         63.9017   81.8857   11.8171 Cl      1  UNL1       -0.0822
     17 C          63.6774   83.7370   10.0082 C.ar    1  UNL1        0.0228
     18 C          63.0958   85.0413    9.5494 C.ar    1  UNL1        0.0585
     19 CL         63.4531   85.5884    8.1993 Cl      1  UNL1       -0.0822
     20 C          60.1778   85.8483    8.1869 C.3     1  UNL1        0.0934
     21 N          60.6652   85.5367    6.8029 N.3     1  UNL1       -0.3174
     22 H          60.2694   86.2071    6.1440 H       1  UNL1        0.1192
     23 H          60.3746   84.5937    6.5444 H       1  UNL1        0.1192
     24 C          63.7403   90.8735   13.0529 C.3     1  UNL1        0.1433
     25 C          63.0227   88.1763   17.5352 C.3     1  UNL1        0.0754
     26 C          63.2384   89.3002   16.5655 C.ar    1  UNL1        0.1546
     27 C          63.3617   89.1684   15.0765 C.ar    1  UNL1        0.0553
     28 C          63.5683   90.5399   14.5052 C.ar    1  UNL1        0.1204
     29 N          63.5726   91.5193   15.6414 N.ar    1  UNL1       -0.0800
     30 O          63.3687   90.7531   16.9147 O.2     1  UNL1       -0.3580
@<TRIPOS>BOND
     1    25    26    1
     2    26    27   ar
     3    27    28   ar
     4    28    24    1
     5    24     1    1
     6     1     2    1
     7     2     3    1
     8     3     4   ar
     9     4     5   ar
    10     5     6    1
    11     5     7   ar
    12     7    20    1
    13    20    21    1
    14     7     8   ar
    15     8    12    1
    16    12    13   ar
    17    13    14   ar
    18    14    15   ar
    19    15    16    1
    20    15    17   ar
    21    17    18   ar
    22    18    19    1
    23     8     9   ar
    24     9    10    1
    25    10    11    2
    26    28    29   ar
    27    29    30   ar
    28    30    26   ar
    29    10     1   am
    30     9     3   ar
    31    18    12   ar
    32    21    22    1
    33    21    23    1
@<TRIPOS>MOLECULE
*****
 30 33 0 0 0
SMALL
GASTEIGER

@<TRIPOS>ATOM
      1 N          64.1122   84.8656   14.1315 N.am    1  UNL1       -0.2645
      2 C          64.6391   86.0709   14.8522 C.3     1  UNL1        0.1400
      3 C          64.1845   87.2914   14.1081 C.ar    1  UNL1        0.0830
      4 N          64.4019   88.7552   14.3530 N.ar    1  UNL1       -0.2524
      5 C          63.8113   89.7680   13.4172 C.ar    1  UNL1        0.0563
      6 C          64.0287   91.2319   13.6622 C.3     1  UNL1        0.0518
      7 C          63.0035   89.3170   12.2366 C.ar    1  UNL1        0.0072
      8 C          62.7862   87.8532   11.9917 C.ar    1  UNL1        0.0048
      9 C          63.3767   86.8404   12.9274 C.ar    1  UNL1        0.0686
     10 C          63.3319   85.3411   12.9419 C.2     1  UNL1        0.2508
     11 O          62.6302   84.4703   11.9423 O.2     1  UNL1       -0.2698
     12 C          61.9783   87.4021   10.8111 C.ar    1  UNL1        0.0106
     13 C          62.6499   86.7058    9.6646 C.ar    1  UNL1        0.0017
     14 C          61.8421   86.2548    8.4840 C.ar    1  UNL1        0.0114
     15 C          60.3626   86.5000    8.4497 C.ar    1  UNL1        0.0585
     16 CL         59.5548   86.0490    7.2691 Cl      1  UNL1       -0.0822
     17 C          59.6911   87.1964    9.5961 C.ar    1  UNL1        0.0228
     18 C          60.4989   87.6474   10.7768 C.ar    1  UNL1        0.0585
     19 CL         59.8274   88.3438   11.9231 Cl      1  UNL1       -0.0822
     20 C          62.4130   90.3297   11.3009 C.3     1  UNL1        0.0934
     21 N          63.2004   90.8047   10.1158 N.3     1  UNL1       -0.3174
     22 H          64.0173   91.3245   10.4366 H       1  UNL1        0.1192
     23 H          62.6161   91.4110    9.5402 H       1  UNL1        0.1192
     24 C          64.3276   83.4357   14.5303 C.3     1  UNL1        0.1433
     25 C          59.9774   80.4710   14.1213 C.3     1  UNL1        0.0754
     26 C          61.3572   81.0174   13.9029 C.ar    1  UNL1        0.1546
     27 C          61.9680   82.1831   14.6225 C.ar    1  UNL1        0.0553
     28 C          63.3567   82.3801   14.0909 C.ar    1  UNL1        0.1204
     29 N          63.6041   81.3360   13.0426 N.ar    1  UNL1       -0.0800
     30 O          62.3683   80.4939   12.9265 O.2     1  UNL1       -0.3580
@<TRIPOS>BOND
     1    25    26    1
     2    26    27   ar
     3    27    28   ar
     4    28    24    1
     5    24     1    1
     6     1     2    1
     7     2     3    1
     8     3     4   ar
     9     4     5   ar
    10     5     6    1
    11     5     7   ar
    12     7    20    1
    13    20    21    1
    14     7     8   ar
    15     8    12    1
    16    12    13   ar
    17    13    14   ar
    18    14    15   ar
    19    15    16    1
    20    15    17   ar
    21    17    18   ar
    22    18    19    1
    23     8     9   ar
    24     9    10    1
    25    10    11    2
    26    28    29   ar
    27    29    30   ar
    28    30    26   ar
    29    10     1   am
    30     9     3   ar
    31    18    12   ar
    32    21    22    1
    33    21    23    1
@<TRIPOS>MOLECULE
*****
 30 33 0 0 0
SMALL
GASTEIGER

@<TRIPOS>ATOM
      1 N          62.8271   89.9192   12.6255 N.am    1  UNL1       -0.2645
      2 C          61.9717   90.6701   11.6486 C.3     1  UNL1        0.1400
      3 C          61.4837   89.6972   10.6165 C.ar    1  UNL1        0.0830
      4 N          60.6066   89.8679    9.4117 N.ar    1  UNL1       -0.2524
      5 C          60.2833   88.6863    8.5459 C.ar    1  UNL1        0.0563
      6 C          59.4061   88.8570    7.3411 C.3     1  UNL1        0.0518
      7 C          60.8370   87.3342    8.8850 C.ar    1  UNL1        0.0072
      8 C          61.7140   87.1635   10.0898 C.ar    1  UNL1        0.0048
      9 C          62.0374   88.3450   10.9555 C.ar    1  UNL1        0.0686
     10 C          62.8677   88.4822   12.1972 C.2     1  UNL1        0.2508
     11 O          63.6085   87.3766   12.8892 O.2     1  UNL1       -0.2698
     12 C          62.2678   85.8113   10.4289 C.ar    1  UNL1        0.0106
     13 C          61.9346   85.1729   11.7448 C.ar    1  UNL1        0.0017
     14 C          62.4883   83.8207   12.0839 C.ar    1  UNL1        0.0114
     15 C          63.3752   83.1069   11.1072 C.ar    1  UNL1        0.0585
     16 CL         63.9288   81.7548   11.4463 Cl      1  UNL1       -0.0822
     17 C          63.7083   83.7453    9.7913 C.ar    1  UNL1        0.0228
     18 C          63.1546   85.0975    9.4522 C.ar    1  UNL1        0.0585
     19 CL         63.4877   85.7360    8.1363 Cl      1  UNL1       -0.0822
     20 C          60.5136   86.1526    8.0193 C.3     1  UNL1        0.0934
     21 N          59.0935   85.8825    7.6190 N.3     1  UNL1       -0.3174
     22 H          58.5468   85.6429    8.4460 H       1  UNL1        0.1192
     23 H          59.0684   85.1060    6.9581 H       1  UNL1        0.1192
     24 C          63.5202   90.5028   13.8210 C.3     1  UNL1        0.1433
     25 C          68.4101   92.3817   14.4837 C.3     1  UNL1        0.0754
     26 C          67.0261   92.1635   13.9480 C.ar    1  UNL1        0.1546
     27 C          66.0219   91.1813   14.4740 C.ar    1  UNL1        0.0553
     28 C          64.7784   91.2998   13.6434 C.ar    1  UNL1        0.1204
     29 N          65.0143   92.3554   12.6041 N.ar    1  UNL1       -0.0800
     30 O          66.4034   92.8891   12.7923 O.2     1  UNL1       -0.3580
@<TRIPOS>BOND
     1    25    26    1
     2    26    27   ar
     3    27    28   ar
     4    28    24    1
     5    24     1    1
     6     1     2    1
     7     2     3    1
     8     3     4   ar
     9     4     5   ar
    10     5     6    1
    11     5     7   ar
    12     7    20    1
    13    20    21    1
    14     7     8   ar
    15     8    12    1
    16    12    13   ar
    17    13    14   ar
    18    14    15   ar
    19    15    16    1
    20    15    17   ar
    21    17    18   ar
    22    18    19    1
    23     8     9   ar
    24     9    10    1
    25    10    11    2
    26    28    29   ar
    27    29    30   ar
    28    30    26   ar
    29    10     1   am
    30     9     3   ar
    31    18    12   ar
    32    21    22    1
    33    21    23    1
@<TRIPOS>MOLECULE
*****
 30 33 0 0 0
SMALL
GASTEIGER

@<TRIPOS>ATOM
      1 N          62.5107   90.2178   11.9210 N.am    1  UNL1       -0.2645
      2 C          62.6763   90.0389   13.4010 C.3     1  UNL1        0.1400
      3 C          63.8210   90.8997   13.8467 C.ar    1  UNL1        0.0830
      4 N          64.4400   91.1281   15.1938 N.ar    1  UNL1       -0.2524
      5 C          65.6009   92.0673   15.3362 C.ar    1  UNL1        0.0563
      6 C          66.2199   92.2957   16.6834 C.3     1  UNL1        0.0518
      7 C          66.1427   92.7782   14.1317 C.ar    1  UNL1        0.0072
      8 C          65.5237   92.5498   12.7846 C.ar    1  UNL1        0.0048
      9 C          64.3629   91.6106   12.6421 C.ar    1  UNL1        0.0686
     10 C          63.5530   91.1892   11.4519 C.2     1  UNL1        0.2508
     11 O          63.7508   91.6569   10.0405 O.2     1  UNL1       -0.2698
     12 C          66.0656   93.2607   11.5800 C.ar    1  UNL1        0.0106
     13 C          65.4037   94.5136   11.0877 C.ar    1  UNL1        0.0017
     14 C          65.9455   95.2245    9.8832 C.ar    1  UNL1        0.0114
     15 C          67.1493   94.6825    9.1708 C.ar    1  UNL1        0.0585
     16 CL         67.6911   95.3934    7.9663 Cl      1  UNL1       -0.0822
     17 C          67.8111   93.4297    9.6631 C.ar    1  UNL1        0.0228
     18 C          67.2693   92.7187   10.8677 C.ar    1  UNL1        0.0585
     19 CL         67.9311   91.4659   11.3600 Cl      1  UNL1       -0.0822
     20 C          67.3036   93.7174   14.2742 C.3     1  UNL1        0.0934
     21 N          68.6751   93.1777   14.5530 N.3     1  UNL1       -0.3174
     22 H          68.6894   92.7471   15.4776 H       1  UNL1        0.1192
     23 H          69.3529   93.9393   14.5222 H       1  UNL1        0.1192
     24 C          61.4831   89.5437   11.0609 C.3     1  UNL1        0.1433
     25 C          62.8866   85.1317    8.5223 C.3     1  UNL1        0.0754
     26 C          62.2881   86.0699    9.5281 C.ar    1  UNL1        0.1546
     27 C          62.3826   87.5666    9.5030 C.ar    1  UNL1        0.0553
     28 C          61.6431   88.0979   10.6950 C.ar    1  UNL1        0.1204
     29 N          61.0915   86.9293   11.4568 N.ar    1  UNL1       -0.0800
     30 O          61.4902   85.6760   10.7356 O.2     1  UNL1       -0.3580
@<TRIPOS>BOND
     1    25    26    1
     2    26    27   ar
     3    27    28   ar
     4    28    24    1
     5    24     1    1
     6     1     2    1
     7     2     3    1
     8     3     4   ar
     9     4     5   ar
    10     5     6    1
    11     5     7   ar
    12     7    20    1
    13    20    21    1
    14     7     8   ar
    15     8    12    1
    16    12    13   ar
    17    13    14   ar
    18    14    15   ar
    19    15    16    1
    20    15    17   ar
    21    17    18   ar
    22    18    19    1
    23     8     9   ar
    24     9    10    1
    25    10    11    2
    26    28    29   ar
    27    29    30   ar
    28    30    26   ar
    29    10     1   am
    30     9     3   ar
    31    18    12   ar
    32    21    22    1
    33    21    23    1
@<TRIPOS>MOLECULE
*****
 30 33 0 0 0
SMALL
GASTEIGER

@<TRIPOS>ATOM
      1 N          61.9471   90.0743   10.4516 N.am    1  UNL1       -0.2645
      2 C          62.8480   91.2199   10.0967 C.3     1  UNL1        0.1400
      3 C          63.8163   91.4149   11.2256 C.ar    1  UNL1        0.0830
      4 N          64.9344   92.3935   11.4311 N.ar    1  UNL1       -0.2524
      5 C          65.7500   92.3470   12.6892 C.ar    1  UNL1        0.0563
      6 C          66.8682   93.3256   12.8947 C.3     1  UNL1        0.0518
      7 C          65.4475   91.3220   13.7416 C.ar    1  UNL1        0.0072
      8 C          64.3294   90.3435   13.5362 C.ar    1  UNL1        0.0048
      9 C          63.5138   90.3899   12.2781 C.ar    1  UNL1        0.0686
     10 C          62.3586   89.5614   11.7998 C.2     1  UNL1        0.2508
     11 O          61.7258   88.4202   12.5396 O.2     1  UNL1       -0.2698
     12 C          64.0269   89.3185   14.5887 C.ar    1  UNL1        0.0106
     13 C          64.3553   87.8750   14.3462 C.ar    1  UNL1        0.0017
     14 C          64.0528   86.8500   15.3987 C.ar    1  UNL1        0.0114
     15 C          63.4220   87.2684   16.6938 C.ar    1  UNL1        0.0585
     16 CL         63.1195   86.2434   17.7462 Cl      1  UNL1       -0.0822
     17 C          63.0937   88.7117   16.9362 C.ar    1  UNL1        0.0228
     18 C          63.3961   89.7368   15.8837 C.ar    1  UNL1        0.0585
     19 CL         63.0678   91.1802   16.1261 Cl      1  UNL1       -0.0822
     20 C          66.2631   91.2755   14.9997 C.3     1  UNL1        0.0934
     21 N          66.2053   92.4151   15.9734 N.3     1  UNL1       -0.3174
     22 H          66.6025   93.2503   15.5433 H       1  UNL1        0.1192
     23 H          66.7397   92.1760   16.8087 H       1  UNL1        0.1192
     24 C          60.8307   89.5362    9.6066 C.3     1  UNL1        0.1433
     25 C          62.7010   84.8111    8.1726 C.3     1  UNL1        0.0754
     26 C          61.7872   85.9846    8.3668 C.ar    1  UNL1        0.1546
     27 C          62.1344   87.2665    9.0639 C.ar    1  UNL1        0.0553
     28 C          60.9275   88.1565    9.0260 C.ar    1  UNL1        0.1204
     29 N          59.8344   87.4244    8.3054 N.ar    1  UNL1       -0.0800
     30 O          60.3657   86.0822    7.8980 O.2     1  UNL1       -0.3580
@<TRIPOS>BOND
     1    25    26    1
     2    26    27   ar
     3    27    28   ar
     4    28    24    1
     5    24     1    1
     6     1     2    1
     7     2     3    1
     8     3     4   ar
     9     4     5   ar
    10     5     6    1
    11     5     7   ar
    12     7    20    1
    13    20    21    1
    14     7     8   ar
    15     8    12    1
    16    12    13   ar
    17    13    14   ar
    18    14    15   ar
    19    15    16    1
    20    15    17   ar
    21    17    18   ar
    22    18    19    1
    23     8     9   ar
    24     9    10    1
    25    10    11    2
    26    28    29   ar
    27    29    30   ar
    28    30    26   ar
    29    10     1   am
    30     9     3   ar
    31    18    12   ar
    32    21    22    1
    33    21    23    1
@<TRIPOS>MOLECULE
*****
 30 33 0 0 0
SMALL
GASTEIGER

@<TRIPOS>ATOM
      1 N          63.8894   90.1730   13.0435 N.am    1  UNL1       -0.2645
      2 C          64.4060   89.3364   14.1763 C.3     1  UNL1        0.1400
      3 C          64.0358   87.9085   13.9043 C.ar    1  UNL1        0.0830
      4 N          64.2812   86.6441   14.6731 N.ar    1  UNL1       -0.2524
      5 C          63.7812   85.3338   14.1410 C.ar    1  UNL1        0.0563
      6 C          64.0266   84.0693   14.9099 C.3     1  UNL1        0.0518
      7 C          63.0360   85.2878   12.8401 C.ar    1  UNL1        0.0072
      8 C          62.7906   86.5522   12.0713 C.ar    1  UNL1        0.0048
      9 C          63.2905   87.8625   12.6034 C.ar    1  UNL1        0.0686
     10 C          63.2000   89.2621   12.0714 C.2     1  UNL1        0.2508
     11 O          62.5366   89.6778   10.7919 O.2     1  UNL1       -0.2698
     12 C          62.0453   86.5062   10.7704 C.ar    1  UNL1        0.0106
     13 C          62.6619   85.8406    9.5758 C.ar    1  UNL1        0.0017
     14 C          61.9166   85.7946    8.2749 C.ar    1  UNL1        0.0114
     15 C          60.5547   86.4143    8.1684 C.ar    1  UNL1        0.0585
     16 CL         59.8094   86.3683    6.8676 Cl      1  UNL1       -0.0822
     17 C          59.9381   87.0799    9.3629 C.ar    1  UNL1        0.0228
     18 C          60.6834   87.1259   10.6639 C.ar    1  UNL1        0.0585
     19 CL         60.0668   87.7915   11.8584 Cl      1  UNL1       -0.0822
     20 C          62.5360   83.9775   12.3080 C.3     1  UNL1        0.0934
     21 N          63.4708   83.0584   11.5790 N.3     1  UNL1       -0.3174
     22 H          63.7657   83.4958   10.7061 H       1  UNL1        0.1192
     23 H          62.9938   82.1802   11.3751 H       1  UNL1        0.1192
     24 C          64.0363   91.6595   12.9068 C.3     1  UNL1        0.1433
     25 C          67.1448   93.9527    9.3069 C.3     1  UNL1        0.0754
     26 C          66.6679   93.2882   10.5643 C.ar    1  UNL1        0.1546
     27 C          65.2632   92.8466   10.8499 C.ar    1  UNL1        0.0553
     28 C          65.2391   92.2341   12.2189 C.ar    1  UNL1        0.1204
     29 N          66.6291   92.2972   12.7794 N.ar    1  UNL1       -0.0800
     30 O          67.5121   92.9486   11.7567 O.2     1  UNL1       -0.3580
@<TRIPOS>BOND
     1    25    26    1
     2    26    27   ar
     3    27    28   ar
     4    28    24    1
     5    24     1    1
     6     1     2    1
     7     2     3    1
     8     3     4   ar
     9     4     5   ar
    10     5     6    1
    11     5     7   ar
    12     7    20    1
    13    20    21    1
    14     7     8   ar
    15     8    12    1
    16    12    13   ar
    17    13    14   ar
    18    14    15   ar
    19    15    16    1
    20    15    17   ar
    21    17    18   ar
    22    18    19    1
    23     8     9   ar
    24     9    10    1
    25    10    11    2
    26    28    29   ar
    27    29    30   ar
    28    30    26   ar
    29    10     1   am
    30     9     3   ar
    31    18    12   ar
    32    21    22    1
    33    21    23    1
@<TRIPOS>MOLECULE
*****
 30 33 0 0 0
SMALL
GASTEIGER

@<TRIPOS>ATOM
      1 N          63.9432   89.9730   13.1717 N.am    1  UNL1       -0.2645
      2 C          64.4372   89.0726   14.2649 C.3     1  UNL1        0.1400
      3 C          64.0283   87.6689   13.9295 C.ar    1  UNL1        0.0830
      4 N          64.2395   86.3650   14.6403 N.ar    1  UNL1       -0.2524
      5 C          63.7040   85.0940   14.0504 C.ar    1  UNL1        0.0563
      6 C          63.9151   83.7900   14.7612 C.3     1  UNL1        0.0518
      7 C          62.9573   85.1270   12.7500 C.ar    1  UNL1        0.0072
      8 C          62.7462   86.4309   12.0392 C.ar    1  UNL1        0.0048
      9 C          63.2817   87.7018   12.6289 C.ar    1  UNL1        0.0686
     10 C          63.2290   89.1259   12.1606 C.2     1  UNL1        0.2508
     11 O          62.5768   89.6166   10.9021 O.2     1  UNL1       -0.2698
     12 C          61.9995   86.4638   10.7386 C.ar    1  UNL1        0.0106
     13 C          62.5906   85.8229    9.5180 C.ar    1  UNL1        0.0017
     14 C          61.8440   85.8557    8.2175 C.ar    1  UNL1        0.0114
     15 C          60.5062   86.5295    8.1375 C.ar    1  UNL1        0.0585
     16 CL         59.7596   86.5624    6.8370 Cl      1  UNL1       -0.0822
     17 C          59.9151   87.1704    9.3581 C.ar    1  UNL1        0.0228
     18 C          60.6617   87.1376   10.6587 C.ar    1  UNL1        0.0585
     19 CL         60.0706   87.7784   11.8793 Cl      1  UNL1       -0.0822
     20 C          62.4218   83.8560   12.1601 C.3     1  UNL1        0.0934
     21 N          63.3306   82.9464   11.3878 N.3     1  UNL1       -0.3174
     22 H          63.6360   83.4150   10.5348 H       1  UNL1        0.1192
     23 H          62.8301   82.0913   11.1454 H       1  UNL1        0.1192
     24 C          64.1305   91.4597   13.1018 C.3     1  UNL1        0.1433
     25 C          68.1607   93.4368   15.8818 C.3     1  UNL1        0.0754
     26 C          67.3071   92.9753   14.7380 C.ar    1  UNL1        0.1546
     27 C          65.9334   92.3827   14.8461 C.ar    1  UNL1        0.0553
     28 C          65.4546   92.0665   13.4602 C.ar    1  UNL1        0.1204
     29 N          66.5325   92.4636   12.4956 N.ar    1  UNL1       -0.0800
     30 O          67.6774   93.0253   13.2853 O.2     1  UNL1       -0.3580
@<TRIPOS>BOND
     1    25    26    1
     2    26    27   ar
     3    27    28   ar
     4    28    24    1
     5    24     1    1
     6     1     2    1
     7     2     3    1
     8     3     4   ar
     9     4     5   ar
    10     5     6    1
    11     5     7   ar
    12     7    20    1
    13    20    21    1
    14     7     8   ar
    15     8    12    1
    16    12    13   ar
    17    13    14   ar
    18    14    15   ar
    19    15    16    1
    20    15    17   ar
    21    17    18   ar
    22    18    19    1
    23     8     9   ar
    24     9    10    1
    25    10    11    2
    26    28    29   ar
    27    29    30   ar
    28    30    26   ar
    29    10     1   am
    30     9     3   ar
    31    18    12   ar
    32    21    22    1
    33    21    23    1
@<TRIPOS>MOLECULE
*****
 30 33 0 0 0
SMALL
GASTEIGER

@<TRIPOS>ATOM
      1 N          63.6689   85.2892   13.5036 N.am    1  UNL1       -0.2645
      2 C          62.7956   85.2297   12.2855 C.3     1  UNL1        0.1400
      3 C          62.5642   86.6341   11.8121 C.ar    1  UNL1        0.0830
      4 N          61.7829   87.1881   10.6577 N.ar    1  UNL1       -0.2524
      5 C          61.7319   88.6698   10.4289 C.ar    1  UNL1        0.0563
      6 C          60.9505   89.2239    9.2745 C.3     1  UNL1        0.0518
      7 C          62.4621   89.5971   11.3544 C.ar    1  UNL1        0.0072
      8 C          63.2435   89.0431   12.5087 C.ar    1  UNL1        0.0048
      9 C          63.2945   87.5615   12.7375 C.ar    1  UNL1        0.0686
     10 C          63.9773   86.7304   13.7830 C.2     1  UNL1        0.2508
     11 O          64.8203   87.2492   14.9100 O.2     1  UNL1       -0.2698
     12 C          63.9738   89.9706   13.4341 C.ar    1  UNL1        0.0106
     13 C          65.2095   90.6794   12.9643 C.ar    1  UNL1        0.0017
     14 C          65.9398   91.6068   13.8897 C.ar    1  UNL1        0.0114
     15 C          65.4344   91.8255   15.2850 C.ar    1  UNL1        0.0585
     16 CL         66.1647   92.7530   16.2104 Cl      1  UNL1       -0.0822
     17 C          64.1988   91.1167   15.7548 C.ar    1  UNL1        0.0228
     18 C          63.4684   90.1892   14.8294 C.ar    1  UNL1        0.0585
     19 CL         62.2327   89.4804   15.2992 Cl      1  UNL1       -0.0822
     20 C          62.4111   91.0788   11.1255 C.3     1  UNL1        0.0934
     21 N          63.2070   91.6936   10.0126 N.3     1  UNL1       -0.3174
     22 H          64.2025   91.5849   10.2063 H       1  UNL1        0.1192
     23 H          62.9809   92.6856    9.9407 H       1  UNL1        0.1192
     24 C          64.1495   84.1139   14.3022 C.3     1  UNL1        0.1433
     25 C          60.2774   80.5259   14.1867 C.3     1  UNL1        0.0754
     26 C          61.6379   81.1574   14.1745 C.ar    1  UNL1        0.1546
     27 C          61.9298   82.6246   14.2837 C.ar    1  UNL1        0.0553
     28 C          63.4177   82.8067   14.2276 C.ar    1  UNL1        0.1204
     29 N          64.0453   81.4519   14.0836 N.ar    1  UNL1       -0.0800
     30 O          62.9453   80.4326   14.0508 O.2     1  UNL1       -0.3580
@<TRIPOS>BOND
     1    25    26    1
     2    26    27   ar
     3    27    28   ar
     4    28    24    1
     5    24     1    1
     6     1     2    1
     7     2     3    1
     8     3     4   ar
     9     4     5   ar
    10     5     6    1
    11     5     7   ar
    12     7    20    1
    13    20    21    1
    14     7     8   ar
    15     8    12    1
    16    12    13   ar
    17    13    14   ar
    18    14    15   ar
    19    15    16    1
    20    15    17   ar
    21    17    18   ar
    22    18    19    1
    23     8     9   ar
    24     9    10    1
    25    10    11    2
    26    28    29   ar
    27    29    30   ar
    28    30    26   ar
    29    10     1   am
    30     9     3   ar
    31    18    12   ar
    32    21    22    1
    33    21    23    1
