@<TRIPOS>MOLECULE
*****
 45 48 0 0 0
SMALL
GASTEIGER

@<TRIPOS>ATOM
      1 N          64.6258   91.2681   12.8039 N.ar    1  UNL1       -0.2470
      2 C          63.6369   90.8408   11.7602 C.ar    1  UNL1        0.2657
      3 O          63.2092   91.8043   10.6931 O.2     1  UNL1       -0.2668
      4 C          63.0757   89.4500   11.7836 C.ar    1  UNL1        0.0736
      5 C          63.5034   88.4865   12.8507 C.ar    1  UNL1        0.0847
      6 N          64.4923   88.9138   13.8944 N.ar    1  UNL1       -0.2755
      7 C          65.0535   90.3046   13.8710 C.ar    1  UNL1        0.3341
      8 O          66.0425   90.7320   14.9148 O.2     1  UNL1       -0.2462
      9 C          62.0868   89.0226   10.7398 C.ar    1  UNL1        0.0060
     10 C          60.9093   89.8953   10.4202 C.ar    1  UNL1       -0.0001
     11 C          59.9204   89.4680    9.3765 C.ar    1  UNL1       -0.0029
     12 C          60.1089   88.1679    8.6523 C.ar    1  UNL1       -0.0064
     13 C          61.2863   87.2952    8.9718 C.ar    1  UNL1       -0.0029
     14 C          62.2753   87.7226   10.0156 C.ar    1  UNL1       -0.0001
     15 C          59.1200   87.7406    7.6086 C.3     1  UNL1        0.0956
     16 N          58.5299   88.7551    6.6744 N.3     1  UNL1       -0.2934
     17 H          57.9209   89.3518    7.2343 H       1  UNL1        0.1236
     18 C          59.4286   89.6663    5.8921 C.3     1  UNL1        0.0748
     19 C          59.1458   91.1386    5.8441 C.3     1  UNL1        0.0588
     20 C          58.2132   91.6898    4.8065 C.2     1  UNL1        0.0517
     21 O          56.7299   91.5522    4.9825 O.co2   1  UNL1       -0.5491
     22 O          58.7638   92.3785    3.5931 O.co2   1  UNL1       -0.5491
     23 C          65.1871   92.6590   12.7806 C.3     1  UNL1        0.1334
     24 N          67.6513   92.7706   13.5962 N.3     1  UNL1       -0.3172
     25 C          66.6428   92.8756   12.4908 C.3     1  UNL1        0.0968
     26 H          67.1755   92.5476   14.4705 H       1  UNL1        0.1192
     27 H          68.1427   93.6591   13.6936 H       1  UNL1        0.1192
     28 C          67.0900   93.1972   11.0956 C.ar    1  UNL1       -0.0063
     29 C          66.6537   94.4759   10.4442 C.ar    1  UNL1       -0.0029
     30 C          67.1009   94.7975    9.0490 C.ar    1  UNL1       -0.0003
     31 C          67.9845   93.8404    8.3053 C.ar    1  UNL1       -0.0000
     32 C          68.4209   92.5616    8.9567 C.ar    1  UNL1       -0.0003
     33 C          67.9736   92.2401   10.3519 C.ar    1  UNL1       -0.0029
     34 C          64.9200   87.9502   14.9615 C.3     1  UNL1        0.1394
     35 C          63.8899   87.1807   15.7338 C.ar    1  UNL1        0.0319
     36 C          63.1503   87.8395   16.8604 C.ar    1  UNL1        0.1379
     37 F          63.4410   89.2678   17.2147 F       1  UNL1       -0.2044
     38 C          62.1201   87.0699   17.6328 C.ar    1  UNL1        0.0294
     39 C          61.8294   85.6417   17.2785 C.ar    1  UNL1        0.0022
     40 C          62.5689   84.9829   16.1520 C.ar    1  UNL1        0.0037
     41 C          63.5992   85.7524   15.3796 C.ar    1  UNL1        0.0714
     42 C          64.3386   85.0936   14.2530 C.3     1  UNL1        0.4184
     43 F          65.0781   84.4349   13.1265 F       1  UNL1       -0.1659
     44 F          63.1353   85.2506   13.3714 F       1  UNL1       -0.1659
     45 F          65.5419   84.9367   15.1347 F       1  UNL1       -0.1659
@<TRIPOS>UNITY_ATOM_ATTR
21 1
charge -1
@<TRIPOS>BOND
     1    25    24    1
     2    25    23    1
     3    23     1    1
     4     1     2   ar
     5     2     3    2
     6     2     4   ar
     7     4     9    1
     8     9    10   ar
     9    10    11   ar
    10    11    12   ar
    11    12    15    1
    12    15    16    1
    13    16    18    1
    14    18    19    1
    15    19    20    1
    16    20    21   ar
    17    20    22   ar
    18    12    13   ar
    19    13    14   ar
    20     4     5   ar
    21     5     6   ar
    22     6    34    1
    23    34    35    1
    24    35    36   ar
    25    36    37    1
    26    36    38   ar
    27    38    39   ar
    28    39    40   ar
    29    40    41   ar
    30    41    42    1
    31    42    43    1
    32    42    44    1
    33    42    45    1
    34     6     7   ar
    35     7     8    2
    36    25    28    1
    37    28    29   ar
    38    29    30   ar
    39    30    31   ar
    40    31    32   ar
    41    32    33   ar
    42     7     1   ar
    43    33    28   ar
    44    14     9   ar
    45    41    35   ar
    46    24    26    1
    47    24    27    1
    48    16    17    1
@<TRIPOS>MOLECULE
*****
 45 48 0 0 0
SMALL
GASTEIGER

@<TRIPOS>ATOM
      1 N          61.7024   86.9392   11.6254 N.ar    1  UNL1       -0.2470
      2 C          62.1679   88.1256   12.4165 C.ar    1  UNL1        0.2657
      3 O          61.4683   89.4446   12.2722 O.2     1  UNL1       -0.2668
      4 C          63.3330   87.9930   13.3518 C.ar    1  UNL1        0.0736
      5 C          64.0326   86.6740   13.4961 C.ar    1  UNL1        0.0847
      6 N          63.5671   85.4876   12.7051 N.ar    1  UNL1       -0.2755
      7 C          62.4020   85.6202   11.7697 C.ar    1  UNL1        0.3341
      8 O          61.9365   84.4338   10.9786 O.2     1  UNL1       -0.2462
      9 C          63.7985   89.1794   14.1430 C.ar    1  UNL1        0.0060
     10 C          63.4187   89.3131   15.5879 C.ar    1  UNL1       -0.0001
     11 C          63.8842   90.4994   16.3790 C.ar    1  UNL1       -0.0029
     12 C          64.7295   91.5521   15.7252 C.ar    1  UNL1       -0.0064
     13 C          65.1093   91.4183   14.2803 C.ar    1  UNL1       -0.0029
     14 C          64.6438   90.2319   13.4891 C.ar    1  UNL1       -0.0001
     15 C          65.1950   92.7384   16.5163 C.3     1  UNL1        0.0956
     16 N          66.5754   93.2861   16.3049 N.3     1  UNL1       -0.2934
     17 H          66.7281   93.9874   17.0296 H       1  UNL1        0.1236
     18 C          67.7600   92.3665   16.3359 C.3     1  UNL1        0.0748
     19 C          68.7392   92.3663   15.1996 C.3     1  UNL1        0.0588
     20 C          68.2514   92.5168   13.7891 C.2     1  UNL1        0.0517
     21 O          68.7705   91.6077   12.7149 O.co2   1  UNL1       -0.5491
     22 O          67.2444   93.5765   13.4529 O.co2   1  UNL1       -0.5491
     23 C          60.5373   87.0718   10.6900 C.3     1  UNL1        0.1334
     24 N          60.5262   88.8254    8.7730 N.3     1  UNL1       -0.3172
     25 C          60.7677   87.4240    9.2502 C.3     1  UNL1        0.0968
     26 H          60.2116   89.4011    9.5540 H       1  UNL1        0.1192
     27 H          59.8109   88.8185    8.0459 H       1  UNL1        0.1192
     28 C          61.2395   86.3747    8.2877 C.ar    1  UNL1       -0.0063
     29 C          62.6691   85.9212    8.3140 C.ar    1  UNL1       -0.0029
     30 C          63.1409   84.8720    7.3515 C.ar    1  UNL1       -0.0003
     31 C          62.1832   84.2763    6.3626 C.ar    1  UNL1       -0.0000
     32 C          60.7536   84.7298    6.3363 C.ar    1  UNL1       -0.0003
     33 C          60.2818   85.7790    7.2988 C.ar    1  UNL1       -0.0029
     34 C          64.2667   84.1686   12.8494 C.3     1  UNL1        0.1394
     35 C          63.4692   82.9157   13.0594 C.ar    1  UNL1        0.0319
     36 C          63.4733   81.8399   12.0140 C.ar    1  UNL1        0.1379
     37 F          64.2749   82.0171   10.7586 F       1  UNL1       -0.2044
     38 C          62.6758   80.5870   12.2240 C.ar    1  UNL1        0.0294
     39 C          61.8742   80.4097   13.4794 C.ar    1  UNL1        0.0022
     40 C          61.8701   81.4854   14.5248 C.ar    1  UNL1        0.0037
     41 C          62.6676   82.7384   14.3148 C.ar    1  UNL1        0.0714
     42 C          62.6634   83.8141   15.3601 C.3     1  UNL1        0.4184
     43 F          62.6593   84.8898   16.4055 F       1  UNL1       -0.1659
     44 F          64.0011   83.3438   15.8494 F       1  UNL1       -0.1659
     45 F          61.3258   84.2844   14.8709 F       1  UNL1       -0.1659
@<TRIPOS>UNITY_ATOM_ATTR
21 1
charge -1
@<TRIPOS>BOND
     1    25    24    1
     2    25    23    1
     3    23     1    1
     4     1     2   ar
     5     2     3    2
     6     2     4   ar
     7     4     9    1
     8     9    10   ar
     9    10    11   ar
    10    11    12   ar
    11    12    15    1
    12    15    16    1
    13    16    18    1
    14    18    19    1
    15    19    20    1
    16    20    21   ar
    17    20    22   ar
    18    12    13   ar
    19    13    14   ar
    20     4     5   ar
    21     5     6   ar
    22     6    34    1
    23    34    35    1
    24    35    36   ar
    25    36    37    1
    26    36    38   ar
    27    38    39   ar
    28    39    40   ar
    29    40    41   ar
    30    41    42    1
    31    42    43    1
    32    42    44    1
    33    42    45    1
    34     6     7   ar
    35     7     8    2
    36    25    28    1
    37    28    29   ar
    38    29    30   ar
    39    30    31   ar
    40    31    32   ar
    41    32    33   ar
    42     7     1   ar
    43    33    28   ar
    44    14     9   ar
    45    41    35   ar
    46    24    26    1
    47    24    27    1
    48    16    17    1
@<TRIPOS>MOLECULE
*****
 45 48 0 0 0
SMALL
GASTEIGER

@<TRIPOS>ATOM
      1 N          63.7314   86.8200   13.4186 N.ar    1  UNL1       -0.2470
      2 C          62.8457   86.8672   12.2090 C.ar    1  UNL1        0.2657
      3 O          62.3601   85.5927   11.5847 O.2     1  UNL1       -0.2668
      4 C          62.4456   88.1890   11.6236 C.ar    1  UNL1        0.0736
      5 C          62.9312   89.4636   12.2479 C.ar    1  UNL1        0.0847
      6 N          63.8169   89.4163   13.4575 N.ar    1  UNL1       -0.2755
      7 C          64.2170   88.0945   14.0429 C.ar    1  UNL1        0.3341
      8 O          65.1027   88.0472   15.2526 O.2     1  UNL1       -0.2462
      9 C          61.5599   88.2363   10.4139 C.ar    1  UNL1        0.0060
     10 C          61.2287   86.9725    9.6769 C.ar    1  UNL1       -0.0001
     11 C          60.3431   87.0198    8.4673 C.ar    1  UNL1       -0.0029
     12 C          59.7885   88.3309    7.9945 C.ar    1  UNL1       -0.0064
     13 C          60.1196   89.5947    8.7315 C.ar    1  UNL1       -0.0029
     14 C          61.0054   89.5474    9.9412 C.ar    1  UNL1       -0.0001
     15 C          58.9028   88.3782    6.7849 C.3     1  UNL1        0.0956
     16 N          59.0485   89.4928    5.7917 N.3     1  UNL1       -0.2934
     17 H          58.9934   89.0705    4.8649 H       1  UNL1        0.1236
     18 C          58.0810   90.6390    5.8035 C.3     1  UNL1        0.0748
     19 C          58.1843   91.7183    4.7669 C.3     1  UNL1        0.0588
     20 C          59.5317   92.1746    4.2910 C.2     1  UNL1        0.0517
     21 O          59.6448   93.3735    3.3967 O.co2   1  UNL1       -0.5491
     22 O          60.7660   91.4318    4.7092 O.co2   1  UNL1       -0.5491
     23 C          64.1315   85.4981   14.0040 C.3     1  UNL1        0.1334
     24 N          62.2125   85.0055   15.6846 N.3     1  UNL1       -0.3172
     25 C          63.0849   84.5697   14.5449 C.3     1  UNL1        0.0968
     26 H          62.4666   85.9529   15.9644 H       1  UNL1        0.1192
     27 H          62.3418   84.3718   16.4734 H       1  UNL1        0.1192
     28 C          62.9106   83.2055   13.9460 C.ar    1  UNL1       -0.0063
     29 C          63.7577   82.7835   12.7823 C.ar    1  UNL1       -0.0029
     30 C          63.5834   81.4193   12.1835 C.ar    1  UNL1       -0.0003
     31 C          62.5621   80.4772   12.7484 C.ar    1  UNL1       -0.0000
     32 C          61.7150   80.8992   13.9122 C.ar    1  UNL1       -0.0003
     33 C          61.8893   82.2633   14.5110 C.ar    1  UNL1       -0.0029
     34 C          64.3025   90.6909   14.0818 C.3     1  UNL1        0.1394
     35 C          65.0134   91.7126   13.2448 C.ar    1  UNL1        0.0319
     36 C          64.5158   92.0305   11.8659 C.ar    1  UNL1        0.1379
     37 F          63.3071   91.3265   11.3240 F       1  UNL1       -0.2044
     38 C          65.2267   93.0522   11.0289 C.ar    1  UNL1        0.0294
     39 C          66.4353   93.7562   11.5708 C.ar    1  UNL1        0.0022
     40 C          66.9330   93.4384   12.9497 C.ar    1  UNL1        0.0037
     41 C          66.2221   92.4166   13.7867 C.ar    1  UNL1        0.0714
     42 C          66.7197   92.0988   15.1656 C.3     1  UNL1        0.4184
     43 F          67.2174   91.7811   16.5444 F       1  UNL1       -0.1659
     44 F          65.7210   93.0554   15.7465 F       1  UNL1       -0.1659
     45 F          67.7185   91.1423   14.5847 F       1  UNL1       -0.1659
@<TRIPOS>UNITY_ATOM_ATTR
21 1
charge -1
@<TRIPOS>BOND
     1    25    24    1
     2    25    23    1
     3    23     1    1
     4     1     2   ar
     5     2     3    2
     6     2     4   ar
     7     4     9    1
     8     9    10   ar
     9    10    11   ar
    10    11    12   ar
    11    12    15    1
    12    15    16    1
    13    16    18    1
    14    18    19    1
    15    19    20    1
    16    20    21   ar
    17    20    22   ar
    18    12    13   ar
    19    13    14   ar
    20     4     5   ar
    21     5     6   ar
    22     6    34    1
    23    34    35    1
    24    35    36   ar
    25    36    37    1
    26    36    38   ar
    27    38    39   ar
    28    39    40   ar
    29    40    41   ar
    30    41    42    1
    31    42    43    1
    32    42    44    1
    33    42    45    1
    34     6     7   ar
    35     7     8    2
    36    25    28    1
    37    28    29   ar
    38    29    30   ar
    39    30    31   ar
    40    31    32   ar
    41    32    33   ar
    42     7     1   ar
    43    33    28   ar
    44    14     9   ar
    45    41    35   ar
    46    24    26    1
    47    24    27    1
    48    16    17    1
@<TRIPOS>MOLECULE
*****
 45 48 0 0 0
SMALL
GASTEIGER

@<TRIPOS>ATOM
      1 N          64.2054   88.1975   13.7836 N.ar    1  UNL1       -0.2470
      2 C          63.2737   88.0101   12.6231 C.ar    1  UNL1        0.2657
      3 O          62.8295   86.6315   12.2330 O.2     1  UNL1       -0.2668
      4 C          62.7861   89.2012   11.8528 C.ar    1  UNL1        0.0736
      5 C          63.2303   90.5798   12.2429 C.ar    1  UNL1        0.0847
      6 N          64.1620   90.7672   13.4034 N.ar    1  UNL1       -0.2755
      7 C          64.6496   89.5761   14.1737 C.ar    1  UNL1        0.3341
      8 O          65.5813   89.7635   15.3342 O.2     1  UNL1       -0.2462
      9 C          61.8543   89.0138   10.6923 C.ar    1  UNL1        0.0060
     10 C          60.8369   90.0677   10.3696 C.ar    1  UNL1       -0.0001
     11 C          59.9052   89.8803    9.2091 C.ar    1  UNL1       -0.0029
     12 C          59.9908   88.6390    8.3713 C.ar    1  UNL1       -0.0064
     13 C          61.0082   87.5851    8.6940 C.ar    1  UNL1       -0.0029
     14 C          61.9400   87.7725    9.8545 C.ar    1  UNL1       -0.0001
     15 C          59.0591   88.4516    7.2109 C.3     1  UNL1        0.0956
     16 N          59.1060   89.4009    6.0504 N.3     1  UNL1       -0.2934
     17 H          58.9790   88.8415    5.2070 H       1  UNL1        0.1236
     18 C          58.1278   90.5351    5.9692 C.3     1  UNL1        0.0748
     19 C          58.2219   91.5278    4.8486 C.3     1  UNL1        0.0588
     20 C          59.5600   92.0590    4.4276 C.2     1  UNL1        0.0517
     21 O          60.8098   91.3083    4.7804 O.co2   1  UNL1       -0.5491
     22 O          59.6484   93.3410    3.6538 O.co2   1  UNL1       -0.5491
     23 C          64.6930   87.0064   14.5540 C.3     1  UNL1        0.1334
     24 N          62.9215   86.5457   16.3977 N.3     1  UNL1       -0.3172
     25 C          63.7092   86.0823   15.2082 C.3     1  UNL1        0.0968
     26 H          63.1797   87.5063   16.6232 H       1  UNL1        0.1192
     27 H          63.1240   85.9430   17.1953 H       1  UNL1        0.1192
     28 C          63.5130   84.6948   14.6731 C.ar    1  UNL1       -0.0063
     29 C          62.3092   83.8974   15.0793 C.ar    1  UNL1       -0.0029
     30 C          62.1131   82.5100   14.5442 C.ar    1  UNL1       -0.0003
     31 C          63.1208   81.9198   13.6027 C.ar    1  UNL1       -0.0000
     32 C          64.3246   82.7172   13.1964 C.ar    1  UNL1       -0.0003
     33 C          64.5207   84.1046   13.7316 C.ar    1  UNL1       -0.0029
     34 C          64.6061   92.1458   13.7935 C.3     1  UNL1        0.1394
     35 C          65.9728   92.3572   14.3744 C.ar    1  UNL1        0.0319
     36 C          66.1459   92.4793   15.8594 C.ar    1  UNL1        0.1379
     37 F          64.9523   92.3900   16.7635 F       1  UNL1       -0.2044
     38 C          67.5126   92.6906   16.4403 C.ar    1  UNL1        0.0294
     39 C          68.7062   92.7799   15.5363 C.ar    1  UNL1        0.0022
     40 C          68.5332   92.6578   14.0513 C.ar    1  UNL1        0.0037
     41 C          67.1664   92.4465   13.4704 C.ar    1  UNL1        0.0714
     42 C          66.9934   92.3244   11.9854 C.3     1  UNL1        0.4184
     43 F          66.8203   92.2024   10.5005 F       1  UNL1       -0.1659
     44 F          65.9911   93.4401   12.0105 F       1  UNL1       -0.1659
     45 F          67.9956   91.2087   11.9603 F       1  UNL1       -0.1659
@<TRIPOS>UNITY_ATOM_ATTR
21 1
charge -1
@<TRIPOS>BOND
     1    25    24    1
     2    25    23    1
     3    23     1    1
     4     1     2   ar
     5     2     3    2
     6     2     4   ar
     7     4     9    1
     8     9    10   ar
     9    10    11   ar
    10    11    12   ar
    11    12    15    1
    12    15    16    1
    13    16    18    1
    14    18    19    1
    15    19    20    1
    16    20    21   ar
    17    20    22   ar
    18    12    13   ar
    19    13    14   ar
    20     4     5   ar
    21     5     6   ar
    22     6    34    1
    23    34    35    1
    24    35    36   ar
    25    36    37    1
    26    36    38   ar
    27    38    39   ar
    28    39    40   ar
    29    40    41   ar
    30    41    42    1
    31    42    43    1
    32    42    44    1
    33    42    45    1
    34     6     7   ar
    35     7     8    2
    36    25    28    1
    37    28    29   ar
    38    29    30   ar
    39    30    31   ar
    40    31    32   ar
    41    32    33   ar
    42     7     1   ar
    43    33    28   ar
    44    14     9   ar
    45    41    35   ar
    46    24    26    1
    47    24    27    1
    48    16    17    1
@<TRIPOS>MOLECULE
*****
 45 48 0 0 0
SMALL
GASTEIGER

@<TRIPOS>ATOM
      1 N          60.3495   88.5432    9.8735 N.ar    1  UNL1       -0.2470
      2 C          60.9969   87.2157   10.1353 C.ar    1  UNL1        0.2657
      3 O          60.5304   85.9954    9.3983 O.2     1  UNL1       -0.2668
      4 C          62.1107   87.1085   11.1343 C.ar    1  UNL1        0.0736
      5 C          62.5771   88.3288   11.8713 C.ar    1  UNL1        0.0847
      6 N          61.9298   89.6563   11.6095 N.ar    1  UNL1       -0.2755
      7 C          60.8160   89.7635   10.6106 C.ar    1  UNL1        0.3341
      8 O          60.1686   91.0910   10.3487 O.2     1  UNL1       -0.2462
      9 C          62.7581   85.7809   11.3962 C.ar    1  UNL1        0.0060
     10 C          63.1568   85.4033   12.7920 C.ar    1  UNL1       -0.0001
     11 C          63.8042   84.0758   13.0540 C.ar    1  UNL1       -0.0029
     12 C          64.0528   83.1259   11.9200 C.ar    1  UNL1       -0.0064
     13 C          63.6541   83.5034   10.5241 C.ar    1  UNL1       -0.0029
     14 C          63.0067   84.8310   10.2622 C.ar    1  UNL1       -0.0001
     15 C          64.7002   81.7984   12.1820 C.3     1  UNL1        0.0956
     16 N          64.0245   80.7968   13.0709 N.3     1  UNL1       -0.2934
     17 H          63.7282   81.2986   13.9080 H       1  UNL1        0.1236
     18 C          62.8289   80.0394   12.5742 C.3     1  UNL1        0.0748
     19 C          61.7178   79.6885   13.5189 C.3     1  UNL1        0.0588
     20 C          60.9050   80.7755   14.1576 C.2     1  UNL1        0.0517
     21 O          61.5458   82.0873   14.5019 O.co2   1  UNL1       -0.5491
     22 O          59.4515   80.5506   14.4521 O.co2   1  UNL1       -0.5491
     23 C          59.2357   88.6504    8.8745 C.3     1  UNL1        0.1334
     24 N          60.0282   87.1546    6.9037 N.3     1  UNL1       -0.3172
     25 C          59.5194   88.4707    7.4126 C.3     1  UNL1        0.0968
     26 H          60.1218   86.5022    7.6822 H       1  UNL1        0.1192
     27 H          60.9376   87.2895    6.4619 H       1  UNL1        0.1192
     28 C          59.2944   89.6070    6.4596 C.ar    1  UNL1       -0.0063
     29 C          57.9001   90.0781    6.1700 C.ar    1  UNL1       -0.0029
     30 C          57.6751   91.2144    5.2171 C.ar    1  UNL1       -0.0003
     31 C          58.8445   91.8796    4.5537 C.ar    1  UNL1       -0.0000
     32 C          60.2388   91.4085    4.8433 C.ar    1  UNL1       -0.0003
     33 C          60.4638   90.2722    5.7962 C.ar    1  UNL1       -0.0029
     34 C          62.3962   90.8766   12.3466 C.3     1  UNL1        0.1394
     35 C          63.8234   91.3233   12.2301 C.ar    1  UNL1        0.0319
     36 C          64.3108   91.9533   10.9590 C.ar    1  UNL1        0.1379
     37 F          63.3709   92.1366    9.8045 F       1  UNL1       -0.2044
     38 C          65.7379   92.4001   10.8426 C.ar    1  UNL1        0.0294
     39 C          66.6778   92.2168   11.9972 C.ar    1  UNL1        0.0022
     40 C          66.1905   91.5868   13.2682 C.ar    1  UNL1        0.0037
     41 C          64.7632   91.1400   13.3847 C.ar    1  UNL1        0.0714
     42 C          64.2759   90.5100   14.6557 C.3     1  UNL1        0.4184
     43 F          63.7886   89.8800   15.9268 F       1  UNL1       -0.1659
     44 F          64.6235   89.1540   14.1169 F       1  UNL1       -0.1659
     45 F          63.9284   91.8660   15.1946 F       1  UNL1       -0.1659
@<TRIPOS>UNITY_ATOM_ATTR
21 1
charge -1
@<TRIPOS>BOND
     1    25    24    1
     2    25    23    1
     3    23     1    1
     4     1     2   ar
     5     2     3    2
     6     2     4   ar
     7     4     9    1
     8     9    10   ar
     9    10    11   ar
    10    11    12   ar
    11    12    15    1
    12    15    16    1
    13    16    18    1
    14    18    19    1
    15    19    20    1
    16    20    21   ar
    17    20    22   ar
    18    12    13   ar
    19    13    14   ar
    20     4     5   ar
    21     5     6   ar
    22     6    34    1
    23    34    35    1
    24    35    36   ar
    25    36    37    1
    26    36    38   ar
    27    38    39   ar
    28    39    40   ar
    29    40    41   ar
    30    41    42    1
    31    42    43    1
    32    42    44    1
    33    42    45    1
    34     6     7   ar
    35     7     8    2
    36    25    28    1
    37    28    29   ar
    38    29    30   ar
    39    30    31   ar
    40    31    32   ar
    41    32    33   ar
    42     7     1   ar
    43    33    28   ar
    44    14     9   ar
    45    41    35   ar
    46    24    26    1
    47    24    27    1
    48    16    17    1
@<TRIPOS>MOLECULE
*****
 45 48 0 0 0
SMALL
GASTEIGER

@<TRIPOS>ATOM
      1 N          61.6372   87.0331   11.6847 N.ar    1  UNL1       -0.2470
      2 C          62.1342   88.2248   12.4480 C.ar    1  UNL1        0.2657
      3 O          61.4761   89.5603   12.2653 O.2     1  UNL1       -0.2668
      4 C          63.2893   88.0811   13.3940 C.ar    1  UNL1        0.0736
      5 C          63.9474   86.7456   13.5767 C.ar    1  UNL1        0.0847
      6 N          63.4504   85.5538   12.8134 N.ar    1  UNL1       -0.2755
      7 C          62.2953   85.6976   11.8674 C.ar    1  UNL1        0.3341
      8 O          61.7982   84.5058   11.1040 O.2     1  UNL1       -0.2462
      9 C          63.7864   89.2728   14.1574 C.ar    1  UNL1        0.0060
     10 C          63.5018   89.3954   15.6250 C.ar    1  UNL1       -0.0001
     11 C          63.9989   90.5871   16.3884 C.ar    1  UNL1       -0.0029
     12 C          64.7805   91.6563   15.6842 C.ar    1  UNL1       -0.0064
     13 C          65.0651   91.5337   14.2165 C.ar    1  UNL1       -0.0029
     14 C          64.5681   90.3419   13.4531 C.ar    1  UNL1       -0.0001
     15 C          65.2776   92.8479   16.4476 C.3     1  UNL1        0.0956
     16 N          66.6906   93.3179   16.2676 N.3     1  UNL1       -0.2934
     17 H          66.8419   94.0632   16.9474 H       1  UNL1        0.1236
     18 C          67.8278   92.3522   16.4236 C.3     1  UNL1        0.0748
     19 C          68.4601   91.7359   15.2110 C.3     1  UNL1        0.0588
     20 C          68.2445   92.3492   13.8591 C.2     1  UNL1        0.0517
     21 O          67.5050   93.6482   13.7342 O.co2   1  UNL1       -0.5491
     22 O          68.7684   91.6634   12.6323 O.co2   1  UNL1       -0.5491
     23 C          60.4820   87.1768   10.7386 C.3     1  UNL1        0.1334
     24 N          60.4974   88.9111    8.8042 N.3     1  UNL1       -0.3172
     25 C          60.7298   87.5139    9.2982 C.3     1  UNL1        0.0968
     26 H          60.1754   89.4953    9.5757 H       1  UNL1        0.1192
     27 H          59.7905   88.8986    8.0690 H       1  UNL1        0.1192
     28 C          61.2099   86.4539    8.3516 C.ar    1  UNL1       -0.0063
     29 C          62.6348   85.9886    8.4069 C.ar    1  UNL1       -0.0029
     30 C          63.1148   84.9286    7.4603 C.ar    1  UNL1       -0.0003
     31 C          62.1699   84.3339    6.4586 C.ar    1  UNL1       -0.0000
     32 C          60.7450   84.7992    6.4033 C.ar    1  UNL1       -0.0003
     33 C          60.2650   85.8592    7.3498 C.ar    1  UNL1       -0.0029
     34 C          64.1085   84.2184   12.9961 C.3     1  UNL1        0.1394
     35 C          63.2705   82.9892   13.1879 C.ar    1  UNL1        0.0319
     36 C          62.4274   82.8411   14.4197 C.ar    1  UNL1        0.1379
     37 F          62.4224   83.9221   15.4596 F       1  UNL1       -0.2044
     38 C          61.5893   81.6119   14.6116 C.ar    1  UNL1        0.0294
     39 C          61.5943   80.5309   13.5717 C.ar    1  UNL1        0.0022
     40 C          62.4373   80.6790   12.3399 C.ar    1  UNL1        0.0037
     41 C          63.2755   81.9082   12.1480 C.ar    1  UNL1        0.0714
     42 C          64.1185   82.0563   10.9162 C.3     1  UNL1        0.4184
     43 F          64.9615   82.2045    9.6845 F       1  UNL1       -0.1659
     44 F          65.3262   82.2995   11.7720 F       1  UNL1       -0.1659
     45 F          62.9108   81.8132   10.0605 F       1  UNL1       -0.1659
@<TRIPOS>UNITY_ATOM_ATTR
21 1
charge -1
@<TRIPOS>BOND
     1    25    24    1
     2    25    23    1
     3    23     1    1
     4     1     2   ar
     5     2     3    2
     6     2     4   ar
     7     4     9    1
     8     9    10   ar
     9    10    11   ar
    10    11    12   ar
    11    12    15    1
    12    15    16    1
    13    16    18    1
    14    18    19    1
    15    19    20    1
    16    20    21   ar
    17    20    22   ar
    18    12    13   ar
    19    13    14   ar
    20     4     5   ar
    21     5     6   ar
    22     6    34    1
    23    34    35    1
    24    35    36   ar
    25    36    37    1
    26    36    38   ar
    27    38    39   ar
    28    39    40   ar
    29    40    41   ar
    30    41    42    1
    31    42    43    1
    32    42    44    1
    33    42    45    1
    34     6     7   ar
    35     7     8    2
    36    25    28    1
    37    28    29   ar
    38    29    30   ar
    39    30    31   ar
    40    31    32   ar
    41    32    33   ar
    42     7     1   ar
    43    33    28   ar
    44    14     9   ar
    45    41    35   ar
    46    24    26    1
    47    24    27    1
    48    16    17    1
@<TRIPOS>MOLECULE
*****
 45 48 0 0 0
SMALL
GASTEIGER

@<TRIPOS>ATOM
      1 N          63.2077   90.9203   10.8747 N.ar    1  UNL1       -0.2470
      2 C          63.0232   90.0057   12.0492 C.ar    1  UNL1        0.2657
      3 O          61.9632   88.9450   12.0145 O.2     1  UNL1       -0.2668
      4 C          63.8987   90.1518   13.2583 C.ar    1  UNL1        0.0736
      5 C          64.9588   91.2126   13.2930 C.ar    1  UNL1        0.0847
      6 N          65.1433   92.1272   12.1185 N.ar    1  UNL1       -0.2755
      7 C          64.2677   91.9810   10.9094 C.ar    1  UNL1        0.3341
      8 O          64.4522   92.8957    9.7348 O.2     1  UNL1       -0.2462
      9 C          63.7142   89.2372   14.4329 C.ar    1  UNL1        0.0060
     10 C          64.2460   87.8355   14.3827 C.ar    1  UNL1       -0.0001
     11 C          64.0616   86.9209   15.5572 C.ar    1  UNL1       -0.0029
     12 C          63.3453   87.4080   16.7819 C.ar    1  UNL1       -0.0064
     13 C          62.8135   88.8096   16.8320 C.ar    1  UNL1       -0.0029
     14 C          62.9980   89.7243   15.6575 C.ar    1  UNL1       -0.0001
     15 C          63.1609   86.4934   17.9564 C.3     1  UNL1        0.0956
     16 N          62.6829   85.0875   17.7443 N.3     1  UNL1       -0.2934
     17 H          61.9854   84.9017   18.4651 H       1  UNL1        0.1236
     18 C          62.0671   84.6942   16.4343 C.3     1  UNL1        0.0748
     19 C          62.6713   83.5856   15.6244 C.3     1  UNL1        0.0588
     20 C          63.0104   83.8104   14.1806 C.2     1  UNL1        0.0517
     21 O          64.0667   82.9755   13.5195 O.co2   1  UNL1       -0.5491
     22 O          62.2931   84.8701   13.3980 O.co2   1  UNL1       -0.5491
     23 C          62.3322   90.7742    9.6655 C.3     1  UNL1        0.1334
     24 N          59.8973   90.7647   10.5717 N.3     1  UNL1       -0.3172
     25 C          60.9932   90.1088    9.7850 C.3     1  UNL1        0.0968
     26 H          60.2346   91.6487   10.9528 H       1  UNL1        0.1192
     27 H          59.6133   90.1514   11.3357 H       1  UNL1        0.1192
     28 C          60.7500   88.7876    9.1178 C.ar    1  UNL1       -0.0063
     29 C          61.6481   87.6226    9.4113 C.ar    1  UNL1       -0.0029
     30 C          61.4049   86.3014    8.7441 C.ar    1  UNL1       -0.0003
     31 C          60.2635   86.1452    7.7833 C.ar    1  UNL1       -0.0000
     32 C          59.3654   87.3101    7.4898 C.ar    1  UNL1       -0.0003
     33 C          59.6087   88.6313    8.1571 C.ar    1  UNL1       -0.0029
     34 C          66.2033   93.1879   12.1532 C.3     1  UNL1        0.1394
     35 C          66.9246   93.5688   10.8944 C.ar    1  UNL1        0.0319
     36 C          67.8717   92.6002   10.2502 C.ar    1  UNL1        0.1379
     37 F          68.0974   91.2507   10.8649 F       1  UNL1       -0.2044
     38 C          68.5930   92.9812    8.9915 C.ar    1  UNL1        0.0294
     39 C          68.3672   94.3307    8.3768 C.ar    1  UNL1        0.0022
     40 C          67.4202   95.2993    9.0209 C.ar    1  UNL1        0.0037
     41 C          66.6988   94.9183   10.2797 C.ar    1  UNL1        0.0714
     42 C          65.7518   95.8869   10.9238 C.3     1  UNL1        0.4184
     43 F          64.8047   96.8555   11.5679 F       1  UNL1       -0.1659
     44 F          66.5821   95.8683   12.1728 F       1  UNL1       -0.1659
     45 F          64.9214   95.9056    9.6748 F       1  UNL1       -0.1659
@<TRIPOS>UNITY_ATOM_ATTR
21 1
charge -1
@<TRIPOS>BOND
     1    25    24    1
     2    25    23    1
     3    23     1    1
     4     1     2   ar
     5     2     3    2
     6     2     4   ar
     7     4     9    1
     8     9    10   ar
     9    10    11   ar
    10    11    12   ar
    11    12    15    1
    12    15    16    1
    13    16    18    1
    14    18    19    1
    15    19    20    1
    16    20    21   ar
    17    20    22   ar
    18    12    13   ar
    19    13    14   ar
    20     4     5   ar
    21     5     6   ar
    22     6    34    1
    23    34    35    1
    24    35    36   ar
    25    36    37    1
    26    36    38   ar
    27    38    39   ar
    28    39    40   ar
    29    40    41   ar
    30    41    42    1
    31    42    43    1
    32    42    44    1
    33    42    45    1
    34     6     7   ar
    35     7     8    2
    36    25    28    1
    37    28    29   ar
    38    29    30   ar
    39    30    31   ar
    40    31    32   ar
    41    32    33   ar
    42     7     1   ar
    43    33    28   ar
    44    14     9   ar
    45    41    35   ar
    46    24    26    1
    47    24    27    1
    48    16    17    1
@<TRIPOS>MOLECULE
*****
 45 48 0 0 0
SMALL
GASTEIGER

@<TRIPOS>ATOM
      1 N          63.2913   91.0313   10.8973 N.ar    1  UNL1       -0.2470
      2 C          63.1178   90.0973   12.0581 C.ar    1  UNL1        0.2657
      3 O          62.1264   88.9747   11.9757 O.2     1  UNL1       -0.2668
      4 C          63.9357   90.2859   13.3012 C.ar    1  UNL1        0.0736
      5 C          64.9271   91.4085   13.3835 C.ar    1  UNL1        0.0847
      6 N          65.1007   92.3426   12.2228 N.ar    1  UNL1       -0.2755
      7 C          64.2828   92.1540   10.9796 C.ar    1  UNL1        0.3341
      8 O          64.4563   93.0880    9.8188 O.2     1  UNL1       -0.2462
      9 C          63.7622   89.3519   14.4620 C.ar    1  UNL1        0.0060
     10 C          64.3020   87.9543   14.3874 C.ar    1  UNL1       -0.0001
     11 C          64.1285   87.0203   15.5481 C.ar    1  UNL1       -0.0029
     12 C          63.4152   87.4838   16.7837 C.ar    1  UNL1       -0.0064
     13 C          62.8755   88.8813   16.8584 C.ar    1  UNL1       -0.0029
     14 C          63.0490   89.8153   15.6975 C.ar    1  UNL1       -0.0001
     15 C          63.2418   86.5497   17.9444 C.3     1  UNL1        0.0956
     16 N          62.5919   85.2132   17.7411 N.3     1  UNL1       -0.2934
     17 H          61.8039   85.1676   18.3871 H       1  UNL1        0.1236
     18 C          62.0657   84.8331   16.3888 C.3     1  UNL1        0.0748
     19 C          62.7576   83.7716   15.5860 C.3     1  UNL1        0.0588
     20 C          62.5457   83.6953   14.1029 C.2     1  UNL1        0.0517
     21 O          62.4167   84.9544   13.2980 O.co2   1  UNL1       -0.5491
     22 O          62.4629   82.3599   13.4249 O.co2   1  UNL1       -0.5491
     23 C          62.4734   90.8428    9.6541 C.3     1  UNL1        0.1334
     24 N          59.9991   90.8858   10.4452 N.3     1  UNL1       -0.3172
     25 C          61.1242   90.1926    9.7354 C.3     1  UNL1        0.0968
     26 H          60.3265   91.7809   10.8085 H       1  UNL1        0.1192
     27 H          59.6742   90.3038   11.2173 H       1  UNL1        0.1192
     28 C          60.8999   88.8490    9.1071 C.ar    1  UNL1       -0.0063
     29 C          61.8427   87.7189    9.3965 C.ar    1  UNL1       -0.0029
     30 C          61.6184   86.3755    8.7682 C.ar    1  UNL1       -0.0003
     31 C          60.4513   86.1622    7.8504 C.ar    1  UNL1       -0.0000
     32 C          59.5084   87.2923    7.5610 C.ar    1  UNL1       -0.0003
     33 C          59.7327   88.6358    8.1893 C.ar    1  UNL1       -0.0029
     34 C          66.0921   93.4652   12.3051 C.3     1  UNL1        0.1394
     35 C          66.6220   94.0915   11.0494 C.ar    1  UNL1        0.0319
     36 C          66.1565   95.4569   10.6380 C.ar    1  UNL1        0.1379
     37 F          65.1612   96.1959   11.4825 F       1  UNL1       -0.2044
     38 C          66.6864   96.0831    9.3823 C.ar    1  UNL1        0.0294
     39 C          67.6817   95.3441    8.5378 C.ar    1  UNL1        0.0022
     40 C          68.1472   93.9788    8.9491 C.ar    1  UNL1        0.0037
     41 C          67.6173   93.3524   10.2049 C.ar    1  UNL1        0.0714
     42 C          68.0828   91.9871   10.6162 C.3     1  UNL1        0.4184
     43 F          68.5483   90.6218   11.0275 F       1  UNL1       -0.1659
     44 F          67.9118   91.5042    9.2065 F       1  UNL1       -0.1659
     45 F          68.2538   92.4701   12.0260 F       1  UNL1       -0.1659
@<TRIPOS>UNITY_ATOM_ATTR
21 1
charge -1
@<TRIPOS>BOND
     1    25    24    1
     2    25    23    1
     3    23     1    1
     4     1     2   ar
     5     2     3    2
     6     2     4   ar
     7     4     9    1
     8     9    10   ar
     9    10    11   ar
    10    11    12   ar
    11    12    15    1
    12    15    16    1
    13    16    18    1
    14    18    19    1
    15    19    20    1
    16    20    21   ar
    17    20    22   ar
    18    12    13   ar
    19    13    14   ar
    20     4     5   ar
    21     5     6   ar
    22     6    34    1
    23    34    35    1
    24    35    36   ar
    25    36    37    1
    26    36    38   ar
    27    38    39   ar
    28    39    40   ar
    29    40    41   ar
    30    41    42    1
    31    42    43    1
    32    42    44    1
    33    42    45    1
    34     6     7   ar
    35     7     8    2
    36    25    28    1
    37    28    29   ar
    38    29    30   ar
    39    30    31   ar
    40    31    32   ar
    41    32    33   ar
    42     7     1   ar
    43    33    28   ar
    44    14     9   ar
    45    41    35   ar
    46    24    26    1
    47    24    27    1
    48    16    17    1
@<TRIPOS>MOLECULE
*****
 45 48 0 0 0
SMALL
GASTEIGER

@<TRIPOS>ATOM
      1 N          63.1002   90.1614   11.1406 N.ar    1  UNL1       -0.2470
      2 C          63.1353   88.8472   11.8628 C.ar    1  UNL1        0.2657
      3 O          62.4940   87.6374   11.2503 O.2     1  UNL1       -0.2668
      4 C          63.8117   88.7428   13.1975 C.ar    1  UNL1        0.0736
      5 C          64.4530   89.9526   13.8100 C.ar    1  UNL1        0.0847
      6 N          64.4179   91.2667   13.0878 N.ar    1  UNL1       -0.2755
      7 C          63.7416   91.3712   11.7531 C.ar    1  UNL1        0.3341
      8 O          63.7065   92.6854   11.0308 O.2     1  UNL1       -0.2462
      9 C          63.8468   87.4286   13.9198 C.ar    1  UNL1        0.0060
     10 C          63.8370   86.1454   13.1431 C.ar    1  UNL1       -0.0001
     11 C          63.8721   84.8312   13.8653 C.ar    1  UNL1       -0.0029
     12 C          63.9169   84.8001   15.3643 C.ar    1  UNL1       -0.0064
     13 C          63.9266   86.0833   16.1411 C.ar    1  UNL1       -0.0029
     14 C          63.8916   87.3976   15.4188 C.ar    1  UNL1       -0.0001
     15 C          63.9520   83.4860   16.0865 C.3     1  UNL1        0.0956
     16 N          63.5150   82.2335   15.3863 N.3     1  UNL1       -0.2934
     17 H          63.4637   81.5022   16.0956 H       1  UNL1        0.1236
     18 C          62.2136   82.2059   14.6411 C.3     1  UNL1        0.0748
     19 C          62.0777   81.3752   13.3995 C.3     1  UNL1        0.0588
     20 C          63.1630   81.3909   12.3641 C.2     1  UNL1        0.0517
     21 O          62.8647   80.9610   10.9584 O.co2   1  UNL1       -0.5491
     22 O          64.5466   81.8364   12.7346 O.co2   1  UNL1       -0.5491
     23 C          62.4238   90.2659    9.8058 C.3     1  UNL1        0.1334
     24 N          59.9593   90.8965   10.3332 N.3     1  UNL1       -0.3172
     25 C          60.9559   89.9822    9.6846 C.3     1  UNL1        0.0968
     26 H          60.4511   91.6522   10.8100 H       1  UNL1        0.1192
     27 H          59.4057   90.3709   11.0098 H       1  UNL1        0.1192
     28 C          60.4846   88.7841    8.9147 C.ar    1  UNL1       -0.0063
     29 C          61.0120   87.4210    9.2518 C.ar    1  UNL1       -0.0029
     30 C          60.5407   86.2230    8.4820 C.ar    1  UNL1       -0.0003
     31 C          59.5420   86.3881    7.3751 C.ar    1  UNL1       -0.0000
     32 C          59.0146   87.7513    7.0380 C.ar    1  UNL1       -0.0003
     33 C          59.4859   88.9492    7.8078 C.ar    1  UNL1       -0.0029
     34 C          65.0593   92.4765   13.7003 C.3     1  UNL1        0.1394
     35 C          66.4251   92.3729   14.3117 C.ar    1  UNL1        0.0319
     36 C          66.5804   92.3658   15.8036 C.ar    1  UNL1        0.1379
     37 F          65.3700   92.4624   16.6842 F       1  UNL1       -0.2044
     38 C          67.9463   92.2622   16.4150 C.ar    1  UNL1        0.0294
     39 C          69.1567   92.1656   15.5344 C.ar    1  UNL1        0.0022
     40 C          69.0014   92.1727   14.0425 C.ar    1  UNL1        0.0037
     41 C          67.6356   92.2763   13.4311 C.ar    1  UNL1        0.0714
     42 C          67.4802   92.2834   11.9392 C.3     1  UNL1        0.4184
     43 F          67.3249   92.2904   10.4473 F       1  UNL1       -0.1659
     44 F          66.6040   93.4969   12.0362 F       1  UNL1       -0.1659
     45 F          68.3565   91.0698   11.8422 F       1  UNL1       -0.1659
@<TRIPOS>UNITY_ATOM_ATTR
21 1
charge -1
@<TRIPOS>BOND
     1    25    24    1
     2    25    23    1
     3    23     1    1
     4     1     2   ar
     5     2     3    2
     6     2     4   ar
     7     4     9    1
     8     9    10   ar
     9    10    11   ar
    10    11    12   ar
    11    12    15    1
    12    15    16    1
    13    16    18    1
    14    18    19    1
    15    19    20    1
    16    20    21   ar
    17    20    22   ar
    18    12    13   ar
    19    13    14   ar
    20     4     5   ar
    21     5     6   ar
    22     6    34    1
    23    34    35    1
    24    35    36   ar
    25    36    37    1
    26    36    38   ar
    27    38    39   ar
    28    39    40   ar
    29    40    41   ar
    30    41    42    1
    31    42    43    1
    32    42    44    1
    33    42    45    1
    34     6     7   ar
    35     7     8    2
    36    25    28    1
    37    28    29   ar
    38    29    30   ar
    39    30    31   ar
    40    31    32   ar
    41    32    33   ar
    42     7     1   ar
    43    33    28   ar
    44    14     9   ar
    45    41    35   ar
    46    24    26    1
    47    24    27    1
    48    16    17    1
