@<TRIPOS>MOLECULE
*****
 33 36 0 0 0
SMALL
GASTEIGER

@<TRIPOS>ATOM
      1 C          59.9729   92.6570    2.4561 C.2     1  UNL1        0.2532
      2 O          61.3964   92.3264    2.7944 O.2     1  UNL1       -0.2695
      3 N          58.8587   92.1493    3.3225 N.am    1  UNL1       -0.2987
      4 H          57.9245   92.3663    3.1004 H       1  UNL1        0.1498
      5 C          58.4684   95.6194   -3.0725 C.ar    1  UNL1        0.2398
      6 N          58.8367   96.8556   -2.3068 N.ar    1  UNL1       -0.1101
      7 N          59.2885   96.7476   -0.8806 N.ar    1  UNL1       -0.1384
      8 C          59.3721   95.4036   -0.2200 C.ar    1  UNL1        0.1336
      9 S          59.7800   94.9882    1.1624 S.2     1  UNL1       -0.0604
     10 C          59.6637   93.4953    1.2512 C.ar    1  UNL1        0.0971
     11 C          59.1841   92.9880   -0.0764 C.ar    1  UNL1        0.0539
     12 N          58.9294   91.5533   -0.4323 N.pl3   1  UNL1       -0.3564
     13 C          59.0039   94.1674   -0.9857 C.ar    1  UNL1        0.0397
     14 C          58.5520   94.2753   -2.4119 C.ar    1  UNL1        0.0360
     15 C          58.1837   93.0391   -3.1776 C.3     1  UNL1        0.0361
     16 H          59.0776   90.8464    0.2367 H       1  UNL1        0.1424
     17 H          58.6139   91.3186   -1.3349 H       1  UNL1        0.1424
     18 C          56.6672   96.3002   -4.8166 C.3     1  UNL1        0.2543
     19 O          58.0165   95.7274   -4.4987 O.3     1  UNL1       -0.4554
     20 C          59.1679   91.3110    4.5273 C.3     1  UNL1        0.1115
     21 C          60.4225   90.7915    5.1644 C.3     1  UNL1        0.1149
     22 N          59.6051   90.1255    6.2312 N.pl3   1  UNL1       -0.2747
     23 C          58.3504   90.6450    5.5941 C.3     1  UNL1        0.1149
     24 C          59.9143   89.2872    7.4360 C.ar    1  UNL1        0.2203
     25 N          60.4933   89.9242    8.6644 N.ar    1  UNL1       -0.2121
     26 C          60.8025   89.0860    9.8693 C.ar    1  UNL1        0.1072
     27 C          60.5327   87.6106    9.8458 C.ar    1  UNL1        0.1097
     28 C          59.9537   86.9735    8.6174 C.ar    1  UNL1        0.1072
     29 N          59.6445   87.8118    7.4125 N.ar    1  UNL1       -0.2121
     30 C          60.8419   86.7723   11.0506 C.3     1  UNL1        0.4215
     31 F          61.1510   85.9340   12.2554 F       1  UNL1       -0.1657
     32 F          60.1013   87.7463   11.9183 F       1  UNL1       -0.1657
     33 F          61.5824   85.7983   10.1829 F       1  UNL1       -0.1657
@<TRIPOS>BOND
     1    18    19    1
     2    19     5    1
     3     5     6   ar
     4     6     7   ar
     5     7     8   ar
     6     8     9   ar
     7     9    10   ar
     8    10     1    1
     9     1     2    2
    10     1     3   am
    11     3    20    1
    12    20    21    1
    13    21    22    1
    14    22    24    1
    15    24    25   ar
    16    25    26   ar
    17    26    27   ar
    18    27    30    1
    19    30    31    1
    20    30    32    1
    21    30    33    1
    22    27    28   ar
    23    28    29   ar
    24    22    23    1
    25    10    11   ar
    26    11    12    1
    27    11    13   ar
    28    13    14   ar
    29    14    15    1
    30    14     5   ar
    31    13     8   ar
    32    23    20    1
    33    29    24   ar
    34     3     4    1
    35    12    16    1
    36    12    17    1
@<TRIPOS>MOLECULE
*****
 33 36 0 0 0
SMALL
GASTEIGER

@<TRIPOS>ATOM
      1 C          72.2811   79.2182   10.6025 C.2     1  UNL1        0.2532
      2 O          72.3101   79.9777   11.8957 O.2     1  UNL1       -0.2695
      3 N          72.1820   77.7215   10.6138 N.am    1  UNL1       -0.2987
      4 H          72.1629   77.2230    9.7651 H       1  UNL1        0.1498
      5 C          72.8567   81.7533    4.6994 C.ar    1  UNL1        0.2398
      6 N          72.3046   82.9800    5.3630 N.ar    1  UNL1       -0.1101
      7 N          71.9678   82.9549    6.8245 N.ar    1  UNL1       -0.1384
      8 C          72.1831   81.7032    7.6224 C.ar    1  UNL1        0.1336
      9 S          71.9458   81.3811    9.0681 S.2     1  UNL1       -0.0604
     10 C          72.3513   79.9554    9.2980 C.ar    1  UNL1        0.0971
     11 C          72.8391   79.3962    7.9944 C.ar    1  UNL1        0.0539
     12 N          73.3425   78.0017    7.7664 N.pl3   1  UNL1       -0.3564
     13 C          72.7352   80.4765    6.9588 C.ar    1  UNL1        0.0397
     14 C          73.0720   80.5015    5.4973 C.ar    1  UNL1        0.0360
     15 C          73.6241   79.2747    4.8338 C.3     1  UNL1        0.0361
     16 H          73.3728   77.3611    8.5133 H       1  UNL1        0.1424
     17 H          73.6426   77.7272    6.8698 H       1  UNL1        0.1424
     18 C          73.1995   83.0796    2.4919 C.3     1  UNL1        0.2543
     19 O          73.1935   81.7783    3.2379 O.3     1  UNL1       -0.4554
     20 C          72.1118   76.9844   11.9183 C.3     1  UNL1        0.1115
     21 C          71.4986   75.6944   12.3761 C.3     1  UNL1        0.1149
     22 N          72.0127   75.9421   13.7632 N.pl3   1  UNL1       -0.2747
     23 C          72.6260   77.2322   13.3055 C.3     1  UNL1        0.1149
     24 C          71.9425   75.2050   15.0678 C.ar    1  UNL1        0.2203
     25 N          70.6155   74.7611   15.6080 N.ar    1  UNL1       -0.2121
     26 C          70.5453   74.0241   16.9125 C.ar    1  UNL1        0.1072
     27 C          71.8023   73.7308   17.6768 C.ar    1  UNL1        0.1097
     28 C          73.1293   74.1747   17.1366 C.ar    1  UNL1        0.1072
     29 N          73.1995   74.9118   15.8320 N.ar    1  UNL1       -0.2121
     30 C          71.7321   72.9938   18.9813 C.3     1  UNL1        0.4215
     31 F          71.6619   72.2567   20.2858 F       1  UNL1       -0.1657
     32 F          72.6775   71.9588   18.4474 F       1  UNL1       -0.1657
     33 F          70.7867   74.0287   19.5152 F       1  UNL1       -0.1657
@<TRIPOS>BOND
     1    18    19    1
     2    19     5    1
     3     5     6   ar
     4     6     7   ar
     5     7     8   ar
     6     8     9   ar
     7     9    10   ar
     8    10     1    1
     9     1     2    2
    10     1     3   am
    11     3    20    1
    12    20    21    1
    13    21    22    1
    14    22    24    1
    15    24    25   ar
    16    25    26   ar
    17    26    27   ar
    18    27    30    1
    19    30    31    1
    20    30    32    1
    21    30    33    1
    22    27    28   ar
    23    28    29   ar
    24    22    23    1
    25    10    11   ar
    26    11    12    1
    27    11    13   ar
    28    13    14   ar
    29    14    15    1
    30    14     5   ar
    31    13     8   ar
    32    23    20    1
    33    29    24   ar
    34     3     4    1
    35    12    16    1
    36    12    17    1
@<TRIPOS>MOLECULE
*****
 33 36 0 0 0
SMALL
GASTEIGER

@<TRIPOS>ATOM
      1 C          72.5172   78.4740   10.7815 C.2     1  UNL1        0.2532
      2 O          72.2069   79.3054   11.9909 O.2     1  UNL1       -0.2695
      3 N          72.6645   76.9870   10.9112 N.am    1  UNL1       -0.2987
      4 H          72.8681   76.4413   10.1175 H       1  UNL1        0.1498
      5 C          72.9327   81.9124    5.3400 C.ar    1  UNL1        0.2398
      6 N          73.4936   80.6373    4.7839 N.ar    1  UNL1       -0.1101
      7 N          73.6329   79.4318    5.6655 N.ar    1  UNL1       -0.1384
      8 C          73.2114   79.5014    7.1034 C.ar    1  UNL1        0.1336
      9 S          73.2297   78.4837    8.2051 S.2     1  UNL1       -0.0604
     10 C          72.6801   79.1299    9.4423 C.ar    1  UNL1        0.0971
     11 C          72.3221   80.5469    9.1051 C.ar    1  UNL1        0.0539
     12 N          71.7383   81.5570   10.0478 N.pl3   1  UNL1       -0.3564
     13 C          72.6505   80.7765    7.6595 C.ar    1  UNL1        0.0397
     14 C          72.5111   81.9820    6.7778 C.ar    1  UNL1        0.0360
     15 C          71.9502   83.2572    7.3341 C.3     1  UNL1        0.0361
     16 H          71.5571   81.3101   10.9835 H       1  UNL1        0.1424
     17 H          71.5363   82.4670    9.7310 H       1  UNL1        0.1424
     18 C          73.2790   83.0699    3.0400 C.3     1  UNL1        0.2543
     19 O          72.7933   83.1179    4.4583 O.3     1  UNL1       -0.4554
     20 C          72.5015   76.3312   12.2504 C.3     1  UNL1        0.1115
     21 C          71.8073   75.0994   12.7508 C.3     1  UNL1        0.1149
     22 N          72.2711   75.4039   14.1443 N.pl3   1  UNL1       -0.2747
     23 C          72.9655   76.6358   13.6440 C.3     1  UNL1        0.1149
     24 C          72.1082   74.7482   15.4835 C.ar    1  UNL1        0.2203
     25 N          73.2787   74.6463   16.4161 N.ar    1  UNL1       -0.2121
     26 C          73.1158   73.9906   17.7553 C.ar    1  UNL1        0.1072
     27 C          71.7824   73.4367   18.1620 C.ar    1  UNL1        0.1097
     28 C          70.6119   73.5385   17.2294 C.ar    1  UNL1        0.1072
     29 N          70.7749   74.1943   15.8902 N.ar    1  UNL1       -0.2121
     30 C          71.6195   72.7810   19.5012 C.3     1  UNL1        0.4215
     31 F          71.4567   72.1253   20.8404 F       1  UNL1       -0.1657
     32 F          70.2096   72.4103   19.1482 F       1  UNL1       -0.1657
     33 F          73.0294   73.1517   19.8542 F       1  UNL1       -0.1657
@<TRIPOS>BOND
     1    18    19    1
     2    19     5    1
     3     5     6   ar
     4     6     7   ar
     5     7     8   ar
     6     8     9   ar
     7     9    10   ar
     8    10     1    1
     9     1     2    2
    10     1     3   am
    11     3    20    1
    12    20    21    1
    13    21    22    1
    14    22    24    1
    15    24    25   ar
    16    25    26   ar
    17    26    27   ar
    18    27    30    1
    19    30    31    1
    20    30    32    1
    21    30    33    1
    22    27    28   ar
    23    28    29   ar
    24    22    23    1
    25    10    11   ar
    26    11    12    1
    27    11    13   ar
    28    13    14   ar
    29    14    15    1
    30    14     5   ar
    31    13     8   ar
    32    23    20    1
    33    29    24   ar
    34     3     4    1
    35    12    16    1
    36    12    17    1
