@<TRIPOS>MOLECULE
*****
 25 28 0 0 0
SMALL
GASTEIGER

@<TRIPOS>ATOM
      1 C          65.4196   91.9202   12.9453 C.3     1  UNL1        0.1242
      2 CL         68.2663   91.3898   12.9989 Cl      1  UNL1       -0.1101
      3 C          67.9312   91.7950   13.5981 C.3     1  UNL1        0.1047
      4 C          69.0429   92.1164   14.5524 C.3     1  UNL1        0.0465
      5 C          68.7548   92.8842   15.8084 C.2     1  UNL1       -0.0245
      6 C          67.3549   93.3308   16.1100 C.2     1  UNL1       -0.0051
      7 C          66.2432   93.0094   15.1556 C.2     1  UNL1       -0.0053
      8 C          66.5314   92.2416   13.8997 C.2     1  UNL1       -0.0031
      9 C          64.8199   90.9895   13.9573 C.ar    1  UNL1        0.0037
     10 C          64.1373   91.5426   15.1731 C.ar    1  UNL1       -0.0019
     11 C          63.5376   90.6118   16.1851 C.ar    1  UNL1       -0.0002
     12 C          63.6204   89.1280   15.9812 C.ar    1  UNL1       -0.0000
     13 C          64.3029   88.5750   14.7653 C.ar    1  UNL1       -0.0002
     14 C          64.9026   89.5057   13.7534 C.ar    1  UNL1       -0.0019
     15 C          66.0193   92.8509   11.9334 C.ar    1  UNL1        0.0037
     16 C          66.7428   92.2976   10.7415 C.ar    1  UNL1       -0.0019
     17 C          67.3425   93.2283    9.7296 C.ar    1  UNL1       -0.0002
     18 C          67.2188   94.7124    9.9094 C.ar    1  UNL1       -0.0000
     19 C          66.4953   95.2657   11.1012 C.ar    1  UNL1       -0.0002
     20 C          65.8956   94.3350   12.1132 C.ar    1  UNL1       -0.0019
     21 N          64.3079   91.5990   11.9910 N.ar    1  UNL1       -0.3011
     22 C          63.0278   90.8958   12.3331 C.ar    1  UNL1        0.0986
     23 C          62.2098   90.7867   11.0805 C.ar    1  UNL1        0.1193
     24 N          62.9843   91.4224    9.9642 N.ar    1  UNL1       -0.2223
     25 C          64.2810   91.9244   10.5269 C.ar    1  UNL1        0.1792
@<TRIPOS>BOND
     1     2     3    1
     2     3     4    1
     3     4     5    1
     4     5     6    2
     5     6     7    1
     6     7     8    2
     7     8     1    1
     8     1     9    1
     9     9    10   ar
    10    10    11   ar
    11    11    12   ar
    12    12    13   ar
    13    13    14   ar
    14     1    15    1
    15    15    16   ar
    16    16    17   ar
    17    17    18   ar
    18    18    19   ar
    19    19    20   ar
    20     1    21    1
    21    21    22   ar
    22    22    23   ar
    23    23    24   ar
    24    24    25   ar
    25     8     3    1
    26    14     9   ar
    27    20    15   ar
    28    25    21   ar
@<TRIPOS>MOLECULE
*****
 25 28 0 0 0
SMALL
GASTEIGER

@<TRIPOS>ATOM
      1 C          65.4222   91.9194   12.9442 C.3     1  UNL1        0.1242
      2 CL         68.2684   91.3863   12.9987 Cl      1  UNL1       -0.1101
      3 C          67.9337   91.7928   13.5972 C.3     1  UNL1        0.1047
      4 C          69.0457   92.1146   14.5511 C.3     1  UNL1        0.0465
      5 C          68.7583   92.8847   15.8058 C.2     1  UNL1       -0.0245
      6 C          67.3588   93.3331   16.1067 C.2     1  UNL1       -0.0051
      7 C          66.2469   93.0113   15.1528 C.2     1  UNL1       -0.0053
      8 C          66.5343   92.2411   13.8981 C.2     1  UNL1       -0.0031
      9 C          66.0224   92.8485   11.9311 C.ar    1  UNL1        0.0037
     10 C          65.8993   94.3328   12.1090 C.ar    1  UNL1       -0.0019
     11 C          66.4994   95.2620   11.0957 C.ar    1  UNL1       -0.0002
     12 C          67.2226   94.7068    9.9047 C.ar    1  UNL1       -0.0000
     13 C          67.3457   93.2225    9.7268 C.ar    1  UNL1       -0.0002
     14 C          66.7456   92.2933   10.7399 C.ar    1  UNL1       -0.0019
     15 C          64.8221   90.9902   13.9574 C.ar    1  UNL1        0.0037
     16 C          64.9041   89.5061   13.7553 C.ar    1  UNL1       -0.0019
     17 C          64.3040   88.5770   14.7685 C.ar    1  UNL1       -0.0002
     18 C          63.6219   89.1319   15.9837 C.ar    1  UNL1       -0.0000
     19 C          63.5398   90.6159   16.1858 C.ar    1  UNL1       -0.0002
     20 C          64.1400   91.5451   15.1726 C.ar    1  UNL1       -0.0019
     21 N          64.3102   91.5976   11.9904 N.ar    1  UNL1       -0.3011
     22 C          63.0302   90.8948   12.3334 C.ar    1  UNL1        0.0986
     23 C          62.2118   90.7849   11.0811 C.ar    1  UNL1        0.1193
     24 N          62.9861   91.4198    9.9641 N.ar    1  UNL1       -0.2223
     25 C          64.2829   91.9220   10.5261 C.ar    1  UNL1        0.1792
@<TRIPOS>BOND
     1     2     3    1
     2     3     4    1
     3     4     5    1
     4     5     6    2
     5     6     7    1
     6     7     8    2
     7     8     1    1
     8     1     9    1
     9     9    10   ar
    10    10    11   ar
    11    11    12   ar
    12    12    13   ar
    13    13    14   ar
    14     1    15    1
    15    15    16   ar
    16    16    17   ar
    17    17    18   ar
    18    18    19   ar
    19    19    20   ar
    20     1    21    1
    21    21    22   ar
    22    22    23   ar
    23    23    24   ar
    24    24    25   ar
    25     8     3    1
    26    14     9   ar
    27    20    15   ar
    28    25    21   ar
@<TRIPOS>MOLECULE
*****
 25 28 0 0 0
SMALL
GASTEIGER

@<TRIPOS>ATOM
      1 C          65.3832   91.7940   13.0292 C.3     1  UNL1        0.1242
      2 CL         66.4182   94.2738   14.1096 Cl      1  UNL1       -0.1101
      3 C          66.7672   93.5844   14.3055 C.3     1  UNL1        0.1047
      4 C          67.8972   93.9399   15.2256 C.3     1  UNL1        0.0465
      5 C          68.7734   92.8607   15.7893 C.2     1  UNL1       -0.0245
      6 C          68.5194   91.4260   15.4330 C.2     1  UNL1       -0.0051
      7 C          67.3894   91.0704   14.5130 C.2     1  UNL1       -0.0053
      8 C          66.5133   92.1496   13.9493 C.2     1  UNL1       -0.0031
      9 C          64.7191   91.0337   14.1386 C.ar    1  UNL1        0.0037
     10 C          64.5528   89.5466   14.0340 C.ar    1  UNL1       -0.0019
     11 C          63.8886   88.7864   15.1436 C.ar    1  UNL1       -0.0002
     12 C          63.3908   89.5132   16.3576 C.ar    1  UNL1       -0.0000
     13 C          63.5571   91.0003   16.4622 C.ar    1  UNL1       -0.0002
     14 C          64.2212   91.7605   15.3527 C.ar    1  UNL1       -0.0019
     15 C          66.0473   92.5543   11.9197 C.ar    1  UNL1        0.0037
     16 C          65.4460   93.8360   11.4241 C.ar    1  UNL1       -0.0019
     17 C          66.1100   94.5963   10.3147 C.ar    1  UNL1       -0.0002
     18 C          67.3755   94.0749    9.7008 C.ar    1  UNL1       -0.0000
     19 C          67.9768   92.7932   10.1963 C.ar    1  UNL1       -0.0002
     20 C          67.3127   92.0328   11.3058 C.ar    1  UNL1       -0.0019
     21 N          64.2531   91.4384   12.1091 N.ar    1  UNL1       -0.3011
     22 C          64.2958   91.4628   10.6099 C.ar    1  UNL1        0.0986
     23 C          62.9511   91.0355   10.1009 C.ar    1  UNL1        0.1193
     24 N          62.0773   90.7470   11.2855 N.ar    1  UNL1       -0.2223
     25 C          62.8820   90.9960   12.5266 C.ar    1  UNL1        0.1792
@<TRIPOS>BOND
     1     2     3    1
     2     3     4    1
     3     4     5    1
     4     5     6    2
     5     6     7    1
     6     7     8    2
     7     8     1    1
     8     1     9    1
     9     9    10   ar
    10    10    11   ar
    11    11    12   ar
    12    12    13   ar
    13    13    14   ar
    14     1    15    1
    15    15    16   ar
    16    16    17   ar
    17    17    18   ar
    18    18    19   ar
    19    19    20   ar
    20     1    21    1
    21    21    22   ar
    22    22    23   ar
    23    23    24   ar
    24    24    25   ar
    25     8     3    1
    26    14     9   ar
    27    20    15   ar
    28    25    21   ar
@<TRIPOS>MOLECULE
*****
 25 28 0 0 0
SMALL
GASTEIGER

@<TRIPOS>ATOM
      1 C          65.3826   91.7943   13.0295 C.3     1  UNL1        0.1242
      2 CL         66.4199   94.2741   14.1077 Cl      1  UNL1       -0.1101
      3 C          66.7680   93.5845   14.3047 C.3     1  UNL1        0.1047
      4 C          67.8979   93.9398   15.2250 C.3     1  UNL1        0.0465
      5 C          68.7724   92.8602   15.7905 C.2     1  UNL1       -0.0245
      6 C          68.5169   91.4254   15.4357 C.2     1  UNL1       -0.0051
      7 C          67.3870   91.0701   14.5154 C.2     1  UNL1       -0.0053
      8 C          66.5125   92.1497   13.9499 C.2     1  UNL1       -0.0031
      9 C          66.0470   92.5545   11.9202 C.ar    1  UNL1        0.0037
     10 C          67.3128   92.0333   11.3070 C.ar    1  UNL1       -0.0019
     11 C          67.9772   92.7935   10.1976 C.ar    1  UNL1       -0.0002
     12 C          67.3758   94.0750    9.7015 C.ar    1  UNL1       -0.0000
     13 C          66.1100   94.5962   10.3147 C.ar    1  UNL1       -0.0002
     14 C          65.4456   93.8360   11.4240 C.ar    1  UNL1       -0.0019
     15 C          64.7182   91.0341   14.1388 C.ar    1  UNL1        0.0037
     16 C          64.2192   91.7612   15.3523 C.ar    1  UNL1       -0.0019
     17 C          63.5547   91.0010   16.4617 C.ar    1  UNL1       -0.0002
     18 C          63.3893   89.5138   16.3576 C.ar    1  UNL1       -0.0000
     19 C          63.8883   88.7867   15.1441 C.ar    1  UNL1       -0.0002
     20 C          64.5527   89.5469   14.0347 C.ar    1  UNL1       -0.0019
     21 N          64.2526   91.4390   12.1093 N.ar    1  UNL1       -0.3011
     22 C          64.2949   91.4654   10.6101 C.ar    1  UNL1        0.0986
     23 C          62.9505   91.0375   10.1008 C.ar    1  UNL1        0.1193
     24 N          62.0772   90.7467   11.2853 N.ar    1  UNL1       -0.2223
     25 C          62.8820   90.9948   12.5265 C.ar    1  UNL1        0.1792
@<TRIPOS>BOND
     1     2     3    1
     2     3     4    1
     3     4     5    1
     4     5     6    2
     5     6     7    1
     6     7     8    2
     7     8     1    1
     8     1     9    1
     9     9    10   ar
    10    10    11   ar
    11    11    12   ar
    12    12    13   ar
    13    13    14   ar
    14     1    15    1
    15    15    16   ar
    16    16    17   ar
    17    17    18   ar
    18    18    19   ar
    19    19    20   ar
    20     1    21    1
    21    21    22   ar
    22    22    23   ar
    23    23    24   ar
    24    24    25   ar
    25     8     3    1
    26    14     9   ar
    27    20    15   ar
    28    25    21   ar
@<TRIPOS>MOLECULE
*****
 25 28 0 0 0
SMALL
GASTEIGER

@<TRIPOS>ATOM
      1 C          71.8231   72.1330   15.8248 C.3     1  UNL1        0.1242
      2 CL         73.0999   74.4261   14.6002 Cl      1  UNL1       -0.1101
      3 C          72.3489   74.4875   14.8604 C.3     1  UNL1        0.1047
      4 C          71.9214   75.8938   14.5611 C.3     1  UNL1        0.0465
      5 C          70.5407   76.3519   14.9268 C.2     1  UNL1       -0.0245
      6 C          69.5874   75.4038   15.5919 C.2     1  UNL1       -0.0051
      7 C          70.0149   73.9975   15.8912 C.2     1  UNL1       -0.0053
      8 C          71.3956   73.5394   15.5254 C.2     1  UNL1       -0.0031
      9 C          71.6983   71.7856   14.3710 C.ar    1  UNL1        0.0037
     10 C          72.9085   71.3556   13.5960 C.ar    1  UNL1       -0.0019
     11 C          72.7836   71.0081   12.1421 C.ar    1  UNL1       -0.0002
     12 C          71.4486   71.0907   11.4632 C.ar    1  UNL1       -0.0000
     13 C          70.2384   71.5207   12.2381 C.ar    1  UNL1       -0.0002
     14 C          70.3632   71.8682   13.6920 C.ar    1  UNL1       -0.0019
     15 C          71.9479   72.4804   17.2786 C.ar    1  UNL1        0.0037
     16 C          70.8896   72.0433   18.2477 C.ar    1  UNL1       -0.0019
     17 C          71.0144   72.3908   19.7016 C.ar    1  UNL1       -0.0002
     18 C          72.1974   73.1753   20.1864 C.ar    1  UNL1       -0.0000
     19 C          73.2556   73.6124   19.2173 C.ar    1  UNL1       -0.0002
     20 C          73.1309   73.2650   17.7634 C.ar    1  UNL1       -0.0019
     21 N          72.2505   70.7268   16.1242 N.ar    1  UNL1       -0.3011
     22 C          73.6170   70.2963   16.5683 C.ar    1  UNL1        0.0986
     23 C          73.5975   68.8075   16.7506 C.ar    1  UNL1        0.1193
     24 N          72.2189   68.3179   16.4191 N.ar    1  UNL1       -0.2223
     25 C          71.3865   69.5040   16.0319 C.ar    1  UNL1        0.1792
@<TRIPOS>BOND
     1     2     3    1
     2     3     4    1
     3     4     5    1
     4     5     6    2
     5     6     7    1
     6     7     8    2
     7     8     1    1
     8     1     9    1
     9     9    10   ar
    10    10    11   ar
    11    11    12   ar
    12    12    13   ar
    13    13    14   ar
    14     1    15    1
    15    15    16   ar
    16    16    17   ar
    17    17    18   ar
    18    18    19   ar
    19    19    20   ar
    20     1    21    1
    21    21    22   ar
    22    22    23   ar
    23    23    24   ar
    24    24    25   ar
    25     8     3    1
    26    14     9   ar
    27    20    15   ar
    28    25    21   ar
@<TRIPOS>MOLECULE
*****
 25 28 0 0 0
SMALL
GASTEIGER

@<TRIPOS>ATOM
      1 C          71.8040   72.1381   15.8300 C.3     1  UNL1        0.1242
      2 CL         73.0551   74.4285   14.5742 Cl      1  UNL1       -0.1101
      3 C          72.3092   74.4901   14.8487 C.3     1  UNL1        0.1047
      4 C          71.8749   75.8952   14.5536 C.3     1  UNL1        0.0465
      5 C          70.5011   76.3534   14.9446 C.2     1  UNL1       -0.0245
      6 C          69.5617   75.4065   15.6308 C.2     1  UNL1       -0.0051
      7 C          69.9960   74.0015   15.9259 C.2     1  UNL1       -0.0053
      8 C          71.3697   73.5433   15.5348 C.2     1  UNL1       -0.0031
      9 C          71.9380   72.4847   17.2832 C.ar    1  UNL1        0.0037
     10 C          73.1330   73.2534   17.7638 C.ar    1  UNL1       -0.0019
     11 C          73.2670   73.6000   19.2171 C.ar    1  UNL1       -0.0002
     12 C          72.2059   73.1779   20.1897 C.ar    1  UNL1       -0.0000
     13 C          71.0109   72.4092   19.7091 C.ar    1  UNL1       -0.0002
     14 C          70.8769   72.0626   18.2558 C.ar    1  UNL1       -0.0019
     15 C          71.6700   71.7915   14.3768 C.ar    1  UNL1        0.0037
     16 C          72.8750   71.3601   13.5944 C.ar    1  UNL1       -0.0019
     17 C          72.7410   71.0136   12.1412 C.ar    1  UNL1       -0.0002
     18 C          71.4021   71.0983   11.4702 C.ar    1  UNL1       -0.0000
     19 C          70.1972   71.5297   12.2525 C.ar    1  UNL1       -0.0002
     20 C          70.3311   71.8763   13.7058 C.ar    1  UNL1       -0.0019
     21 N          72.2383   70.7330   16.1250 N.ar    1  UNL1       -0.3011
     22 C          73.6145   70.3043   16.5400 C.ar    1  UNL1        0.0986
     23 C          73.5994   68.8163   16.7284 C.ar    1  UNL1        0.1193
     24 N          72.2137   68.3253   16.4299 N.ar    1  UNL1       -0.2223
     25 C          71.3726   69.5100   16.0570 C.ar    1  UNL1        0.1792
@<TRIPOS>BOND
     1     2     3    1
     2     3     4    1
     3     4     5    1
     4     5     6    2
     5     6     7    1
     6     7     8    2
     7     8     1    1
     8     1     9    1
     9     9    10   ar
    10    10    11   ar
    11    11    12   ar
    12    12    13   ar
    13    13    14   ar
    14     1    15    1
    15    15    16   ar
    16    16    17   ar
    17    17    18   ar
    18    18    19   ar
    19    19    20   ar
    20     1    21    1
    21    21    22   ar
    22    22    23   ar
    23    23    24   ar
    24    24    25   ar
    25     8     3    1
    26    14     9   ar
    27    20    15   ar
    28    25    21   ar
@<TRIPOS>MOLECULE
*****
 25 28 0 0 0
SMALL
GASTEIGER

@<TRIPOS>ATOM
      1 C          65.5140   91.6965   13.0088 C.3     1  UNL1        0.1242
      2 CL         65.8315   94.4858   12.2968 Cl      1  UNL1       -0.1101
      3 C          66.1777   93.9246   11.8488 C.3     1  UNL1        0.1047
      4 C          66.8931   94.6547   10.7511 C.3     1  UNL1        0.0465
      5 C          67.6601   93.8871    9.7155 C.2     1  UNL1       -0.0245
      6 C          67.7117   92.3893    9.7776 C.2     1  UNL1       -0.0051
      7 C          66.9964   91.6591   10.8754 C.2     1  UNL1       -0.0053
      8 C          66.2294   92.4268   11.9110 C.2     1  UNL1       -0.0031
      9 C          66.5927   92.0904   13.9738 C.ar    1  UNL1        0.0037
     10 C          68.0283   91.7941   13.6557 C.ar    1  UNL1       -0.0019
     11 C          69.1070   92.1881   14.6208 C.ar    1  UNL1       -0.0002
     12 C          68.7501   92.8782   15.9038 C.ar    1  UNL1       -0.0000
     13 C          67.3144   93.1745   16.2219 C.ar    1  UNL1       -0.0002
     14 C          66.2358   92.7806   15.2569 C.ar    1  UNL1       -0.0019
     15 C          64.4353   91.3026   12.0438 C.ar    1  UNL1        0.0037
     16 C          63.5415   90.1382   12.3524 C.ar    1  UNL1       -0.0019
     17 C          62.4628   89.7443   11.3874 C.ar    1  UNL1       -0.0002
     18 C          62.2779   90.5148   10.1138 C.ar    1  UNL1       -0.0000
     19 C          63.1717   91.6792    9.8051 C.ar    1  UNL1       -0.0002
     20 C          64.2505   92.0731   10.7701 C.ar    1  UNL1       -0.0019
     21 N          64.7987   90.9663   14.1065 N.ar    1  UNL1       -0.3011
     22 C          64.9367   89.5085   14.4314 C.ar    1  UNL1        0.0986
     23 C          64.0430   89.2069   15.5977 C.ar    1  UNL1        0.1193
     24 N          63.3526   90.4783   15.9937 N.ar    1  UNL1       -0.2223
     25 C          63.8196   91.5657   15.0720 C.ar    1  UNL1        0.1792
@<TRIPOS>BOND
     1     2     3    1
     2     3     4    1
     3     4     5    1
     4     5     6    2
     5     6     7    1
     6     7     8    2
     7     8     1    1
     8     1     9    1
     9     9    10   ar
    10    10    11   ar
    11    11    12   ar
    12    12    13   ar
    13    13    14   ar
    14     1    15    1
    15    15    16   ar
    16    16    17   ar
    17    17    18   ar
    18    18    19   ar
    19    19    20   ar
    20     1    21    1
    21    21    22   ar
    22    22    23   ar
    23    23    24   ar
    24    24    25   ar
    25     8     3    1
    26    14     9   ar
    27    20    15   ar
    28    25    21   ar
@<TRIPOS>MOLECULE
*****
 25 28 0 0 0
SMALL
GASTEIGER

@<TRIPOS>ATOM
      1 C          65.5060   91.6919   13.0114 C.3     1  UNL1        0.1242
      2 CL         65.8282   94.4815   12.3024 Cl      1  UNL1       -0.1101
      3 C          66.1724   93.9200   11.8531 C.3     1  UNL1        0.1047
      4 C          66.8873   94.6501   10.7551 C.3     1  UNL1        0.0465
      5 C          67.6508   93.8822    9.7171 C.2     1  UNL1       -0.0245
      6 C          67.6993   92.3842    9.7771 C.2     1  UNL1       -0.0051
      7 C          66.9844   91.6542   10.8752 C.2     1  UNL1       -0.0053
      8 C          66.2209   92.4221   11.9132 C.2     1  UNL1       -0.0031
      9 C          64.4278   91.2964   12.0465 C.ar    1  UNL1        0.0037
     10 C          63.5381   90.1284   12.3534 C.ar    1  UNL1       -0.0019
     11 C          62.4599   89.7329   11.3885 C.ar    1  UNL1       -0.0002
     12 C          62.2713   90.5055   10.1167 C.ar    1  UNL1       -0.0000
     13 C          63.1610   91.6735    9.8097 C.ar    1  UNL1       -0.0002
     14 C          64.2392   92.0690   10.7746 C.ar    1  UNL1       -0.0019
     15 C          66.5842   92.0874   13.9762 C.ar    1  UNL1        0.0037
     16 C          68.0203   91.7934   13.6579 C.ar    1  UNL1       -0.0019
     17 C          69.0985   92.1889   14.6228 C.ar    1  UNL1       -0.0002
     18 C          68.7407   92.8784   15.9060 C.ar    1  UNL1       -0.0000
     19 C          67.3047   93.1724   16.2243 C.ar    1  UNL1       -0.0002
     20 C          66.2264   92.7769   15.2594 C.ar    1  UNL1       -0.0019
     21 N          64.7911   90.9618   14.1095 N.ar    1  UNL1       -0.3011
     22 C          64.9285   89.5038   14.4338 C.ar    1  UNL1        0.0986
     23 C          64.0357   89.2024   15.6008 C.ar    1  UNL1        0.1193
     24 N          63.3464   90.4742   15.9978 N.ar    1  UNL1       -0.2223
     25 C          63.8133   91.5615   15.0760 C.ar    1  UNL1        0.1792
@<TRIPOS>BOND
     1     2     3    1
     2     3     4    1
     3     4     5    1
     4     5     6    2
     5     6     7    1
     6     7     8    2
     7     8     1    1
     8     1     9    1
     9     9    10   ar
    10    10    11   ar
    11    11    12   ar
    12    12    13   ar
    13    13    14   ar
    14     1    15    1
    15    15    16   ar
    16    16    17   ar
    17    17    18   ar
    18    18    19   ar
    19    19    20   ar
    20     1    21    1
    21    21    22   ar
    22    22    23   ar
    23    23    24   ar
    24    24    25   ar
    25     8     3    1
    26    14     9   ar
    27    20    15   ar
    28    25    21   ar
@<TRIPOS>MOLECULE
*****
 25 28 0 0 0
SMALL
GASTEIGER

@<TRIPOS>ATOM
      1 C          72.2028   72.7428   15.8709 C.3     1  UNL1        0.1242
      2 CL         70.2707   71.7143   13.9743 Cl      1  UNL1       -0.1101
      3 C          71.0126   71.8746   13.7308 C.3     1  UNL1        0.1047
      4 C          71.0513   71.5334   12.2707 C.3     1  UNL1        0.0465
      5 C          72.3188   71.7193   11.4904 C.2     1  UNL1       -0.0245
      6 C          73.5476   72.2463   12.1702 C.2     1  UNL1       -0.0051
      7 C          73.5089   72.5875   13.6303 C.2     1  UNL1       -0.0053
      8 C          72.2414   72.4016   14.4107 C.2     1  UNL1       -0.0031
      9 C          72.0919   74.1988   15.5278 C.ar    1  UNL1        0.0037
     10 C          70.7575   74.7869   15.1760 C.ar    1  UNL1       -0.0019
     11 C          70.6466   76.2429   14.8329 C.ar    1  UNL1       -0.0002
     12 C          71.8700   77.1108   14.8416 C.ar    1  UNL1       -0.0000
     13 C          73.2043   76.5228   15.1935 C.ar    1  UNL1       -0.0002
     14 C          73.3152   75.0668   15.5366 C.ar    1  UNL1       -0.0019
     15 C          72.3138   71.2868   16.2140 C.ar    1  UNL1        0.0037
     16 C          71.2181   70.6124   16.9852 C.ar    1  UNL1       -0.0019
     17 C          71.3291   69.1564   17.3283 C.ar    1  UNL1       -0.0002
     18 C          72.5357   68.3748   16.9002 C.ar    1  UNL1       -0.0000
     19 C          73.6313   69.0491   16.1289 C.ar    1  UNL1       -0.0002
     20 C          73.5203   70.5052   15.7858 C.ar    1  UNL1       -0.0019
     21 N          72.1642   73.0839   17.3310 N.ar    1  UNL1       -0.3011
     22 C          73.3372   73.0921   18.2658 C.ar    1  UNL1        0.0986
     23 C          72.8438   73.4900   19.6253 C.ar    1  UNL1        0.1193
     24 N          71.3657   73.7277   19.5307 N.ar    1  UNL1       -0.2223
     25 C          70.9457   73.4767   18.1128 C.ar    1  UNL1        0.1792
@<TRIPOS>BOND
     1     2     3    1
     2     3     4    1
     3     4     5    1
     4     5     6    2
     5     6     7    1
     6     7     8    2
     7     8     1    1
     8     1     9    1
     9     9    10   ar
    10    10    11   ar
    11    11    12   ar
    12    12    13   ar
    13    13    14   ar
    14     1    15    1
    15    15    16   ar
    16    16    17   ar
    17    17    18   ar
    18    18    19   ar
    19    19    20   ar
    20     1    21    1
    21    21    22   ar
    22    22    23   ar
    23    23    24   ar
    24    24    25   ar
    25     8     3    1
    26    14     9   ar
    27    20    15   ar
    28    25    21   ar
