@<TRIPOS>MOLECULE
*****
 24 26 0 0 0
SMALL
GASTEIGER

@<TRIPOS>ATOM
      1 C          63.6312   90.8969   11.9801 C.ar    1  UNL1        0.2036
      2 N          64.3556   91.8263   11.0518 N.ar    1  UNL1       -0.2147
      3 C          65.4617   92.6950   11.5729 C.ar    1  UNL1        0.0911
      4 C          65.8437   92.6344   13.0223 C.ar    1  UNL1        0.0801
      5 C          65.1193   91.7051   13.9505 C.ar    1  UNL1        0.2645
      6 O          65.5012   91.6445   15.3998 O.2     1  UNL1       -0.2668
      7 N          64.0131   90.8363   13.4293 N.ar    1  UNL1       -0.2667
      8 C          63.2887   89.9069   14.3576 C.3     1  UNL1        0.1363
      9 C          66.1861   93.6244   10.6447 C.ar    1  UNL1        0.0485
     10 C          65.7795   95.0656   10.5584 C.ar    1  UNL1        0.0244
     11 C          66.5038   95.9950    9.6302 C.ar    1  UNL1        0.0991
     12 N          67.6348   95.4831    8.7882 N.ar    1  UNL1       -0.2400
     13 C          68.0414   94.0418    8.8745 C.ar    1  UNL1        0.1285
     14 C          67.3171   93.1125    9.8027 C.ar    1  UNL1        0.1606
     15 F          67.7237   91.6712    9.8889 F       1  UNL1       -0.2025
     16 C          61.6969   87.7327   10.5670 C.3     1  UNL1        0.1350
     17 C          62.8031   88.6015   11.0881 C.3     1  UNL1        0.1230
     18 N          62.5250   90.0281   11.4589 N.pl3   1  UNL1       -0.2744
     19 C          61.1407   90.5859   11.3086 C.3     1  UNL1        0.1256
     20 C          60.0346   89.7171   10.7875 C.3     1  UNL1        0.1635
     21 O          60.3127   88.2905   10.4167 O.3     1  UNL1       -0.3527
     22 C          62.1850   85.9320    8.7589 C.3     1  UNL1        0.0026
     23 C          61.9751   86.3061   10.1962 C.3     1  UNL1        0.0289
     24 C          62.0432   85.2536   11.2627 C.3     1  UNL1        0.0026
@<TRIPOS>BOND
     1    22    23    1
     2    23    24    1
     3    23    16    1
     4    16    17    1
     5    17    18    1
     6    18     1    1
     7     1     2   ar
     8     2     3   ar
     9     3     9    1
    10     9    10   ar
    11    10    11   ar
    12    11    12   ar
    13    12    13   ar
    14    13    14   ar
    15    14    15    1
    16     3     4   ar
    17     4     5   ar
    18     5     6    2
    19     5     7   ar
    20     7     8    1
    21    18    19    1
    22    19    20    1
    23    20    21    1
    24    21    16    1
    25     7     1   ar
    26    14     9   ar
@<TRIPOS>MOLECULE
*****
 24 26 0 0 0
SMALL
GASTEIGER

@<TRIPOS>ATOM
      1 C          62.6627   88.6128   12.1537 C.ar    1  UNL1        0.2036
      2 N          63.1036   87.1929   12.3529 N.ar    1  UNL1       -0.2147
      3 C          62.4102   86.0826   11.6206 C.ar    1  UNL1        0.0911
      4 C          61.2759   86.3921   10.6890 C.ar    1  UNL1        0.0801
      5 C          60.8351   87.8120   10.4899 C.ar    1  UNL1        0.2645
      6 O          59.7008   88.1215    9.5584 O.2     1  UNL1       -0.2668
      7 N          61.5285   88.9223   11.2223 N.ar    1  UNL1       -0.2667
      8 C          61.0877   90.3422   11.0231 C.3     1  UNL1        0.1363
      9 C          62.8510   84.6627   11.8197 C.ar    1  UNL1        0.0485
     10 C          62.7046   84.0135   13.1639 C.ar    1  UNL1        0.0244
     11 C          63.1454   82.5936   13.3631 C.ar    1  UNL1        0.0991
     12 N          63.7327   81.8230   12.2180 N.ar    1  UNL1       -0.2400
     13 C          63.8791   82.4722   10.8737 C.ar    1  UNL1        0.1285
     14 C          63.4383   83.8921   10.6745 C.ar    1  UNL1        0.1606
     15 F          63.5847   84.5414    9.3303 F       1  UNL1       -0.2025
     16 C          64.7962   91.8853   12.8529 C.3     1  UNL1        0.1350
     17 C          64.1028   90.7750   12.1206 C.3     1  UNL1        0.1230
     18 N          63.3562   89.7231   12.8861 N.pl3   1  UNL1       -0.2744
     19 C          63.3030   89.7815   14.3840 C.3     1  UNL1        0.1256
     20 C          63.9965   90.8918   15.1163 C.3     1  UNL1        0.1635
     21 O          64.7430   91.9437   14.3508 O.3     1  UNL1       -0.3527
     22 C          65.4732   92.9658   10.5892 C.3     1  UNL1        0.0026
     23 C          65.5428   92.9373   12.0873 C.3     1  UNL1        0.0289
     24 C          66.3589   93.9606   12.8198 C.3     1  UNL1        0.0026
@<TRIPOS>BOND
     1    22    23    1
     2    23    24    1
     3    23    16    1
     4    16    17    1
     5    17    18    1
     6    18     1    1
     7     1     2   ar
     8     2     3   ar
     9     3     9    1
    10     9    10   ar
    11    10    11   ar
    12    11    12   ar
    13    12    13   ar
    14    13    14   ar
    15    14    15    1
    16     3     4   ar
    17     4     5   ar
    18     5     6    2
    19     5     7   ar
    20     7     8    1
    21    18    19    1
    22    19    20    1
    23    20    21    1
    24    21    16    1
    25     7     1   ar
    26    14     9   ar
@<TRIPOS>MOLECULE
*****
 24 26 0 0 0
SMALL
GASTEIGER

@<TRIPOS>ATOM
      1 C          62.6400   88.5494   12.1597 C.ar    1  UNL1        0.2036
      2 N          63.1031   87.1338   12.3378 N.ar    1  UNL1       -0.2147
      3 C          62.4181   86.0221   11.5997 C.ar    1  UNL1        0.0911
      4 C          61.2699   86.3260   10.6835 C.ar    1  UNL1        0.0801
      5 C          60.8068   87.7415   10.5054 C.ar    1  UNL1        0.2645
      6 O          59.6587   88.0454    9.5892 O.2     1  UNL1       -0.2668
      7 N          61.4919   88.8532   11.2435 N.ar    1  UNL1       -0.2667
      8 C          61.0288   90.2688   11.0655 C.3     1  UNL1        0.1363
      9 C          62.8812   84.6066   11.7778 C.ar    1  UNL1        0.0485
     10 C          63.4772   83.8612   10.6206 C.ar    1  UNL1        0.0244
     11 C          63.9403   82.4457   10.7987 C.ar    1  UNL1        0.0991
     12 N          63.8074   81.7754   12.1340 N.ar    1  UNL1       -0.2400
     13 C          63.2114   82.5208   13.2913 C.ar    1  UNL1        0.1285
     14 C          62.7483   83.9363   13.1132 C.ar    1  UNL1        0.1606
     15 F          62.1523   84.6817   14.2704 F       1  UNL1       -0.2025
     16 C          64.7638   91.8243   12.8769 C.3     1  UNL1        0.1350
     17 C          64.0788   90.7126   12.1388 C.3     1  UNL1        0.1230
     18 N          63.3251   89.6611   12.8979 N.pl3   1  UNL1       -0.2744
     19 C          63.2565   89.7213   14.3951 C.3     1  UNL1        0.1256
     20 C          63.9415   90.8329   15.1332 C.3     1  UNL1        0.1635
     21 O          64.6952   91.8845   14.3741 O.3     1  UNL1       -0.3527
     22 C          65.4231   92.9335   10.6219 C.3     1  UNL1        0.0026
     23 C          65.5175   92.8759   12.1178 C.3     1  UNL1        0.0289
     24 C          66.3655   93.8698   12.8546 C.3     1  UNL1        0.0026
@<TRIPOS>BOND
     1    22    23    1
     2    23    24    1
     3    23    16    1
     4    16    17    1
     5    17    18    1
     6    18     1    1
     7     1     2   ar
     8     2     3   ar
     9     3     9    1
    10     9    10   ar
    11    10    11   ar
    12    11    12   ar
    13    12    13   ar
    14    13    14   ar
    15    14    15    1
    16     3     4   ar
    17     4     5   ar
    18     5     6    2
    19     5     7   ar
    20     7     8    1
    21    18    19    1
    22    19    20    1
    23    20    21    1
    24    21    16    1
    25     7     1   ar
    26    14     9   ar
@<TRIPOS>MOLECULE
*****
 24 26 0 0 0
SMALL
GASTEIGER

@<TRIPOS>ATOM
      1 C          62.4702   88.4338   11.5646 C.ar    1  UNL1        0.2036
      2 N          62.9512   87.0531   11.8998 N.ar    1  UNL1       -0.2147
      3 C          62.3011   85.8583   11.2676 C.ar    1  UNL1        0.0911
      4 C          61.1701   86.0441   10.2999 C.ar    1  UNL1        0.0801
      5 C          60.6891   87.4248    9.9647 C.ar    1  UNL1        0.2645
      6 O          59.5581   87.6107    8.9971 O.2     1  UNL1       -0.2668
      7 N          61.3392   88.6197   10.5970 N.ar    1  UNL1       -0.2667
      8 C          60.8583   90.0003   10.2618 C.3     1  UNL1        0.1363
      9 C          62.7821   84.4776   11.6028 C.ar    1  UNL1        0.0485
     10 C          62.5875   83.9309   12.9860 C.ar    1  UNL1        0.0244
     11 C          63.0684   82.5502   13.3212 C.ar    1  UNL1        0.0991
     12 N          63.7440   81.7163   12.2733 N.ar    1  UNL1       -0.2400
     13 C          63.9387   82.2630   10.8901 C.ar    1  UNL1        0.1285
     14 C          63.4577   83.6437   10.5548 C.ar    1  UNL1        0.1606
     15 F          63.6524   84.1904    9.1717 F       1  UNL1       -0.2025
     16 C          63.8796   90.9153   14.3225 C.3     1  UNL1        0.1350
     17 C          63.2296   89.7205   13.6901 C.3     1  UNL1        0.1230
     18 N          63.1204   89.6286   12.1969 N.pl3   1  UNL1       -0.2744
     19 C          63.6613   90.7315   11.3361 C.3     1  UNL1        0.1256
     20 C          64.3113   91.9262   11.9684 C.3     1  UNL1        0.1635
     21 O          64.4205   92.0181   13.4616 O.3     1  UNL1       -0.3527
     22 C          63.3276   89.9756   16.6809 C.3     1  UNL1        0.0026
     23 C          63.9888   91.0072   15.8157 C.3     1  UNL1        0.0289
     24 C          64.7592   92.1306   16.4436 C.3     1  UNL1        0.0026
@<TRIPOS>BOND
     1    22    23    1
     2    23    24    1
     3    23    16    1
     4    16    17    1
     5    17    18    1
     6    18     1    1
     7     1     2   ar
     8     2     3   ar
     9     3     9    1
    10     9    10   ar
    11    10    11   ar
    12    11    12   ar
    13    12    13   ar
    14    13    14   ar
    15    14    15    1
    16     3     4   ar
    17     4     5   ar
    18     5     6    2
    19     5     7   ar
    20     7     8    1
    21    18    19    1
    22    19    20    1
    23    20    21    1
    24    21    16    1
    25     7     1   ar
    26    14     9   ar
@<TRIPOS>MOLECULE
*****
 24 26 0 0 0
SMALL
GASTEIGER

@<TRIPOS>ATOM
      1 C          62.3830   87.0871   11.3358 C.ar    1  UNL1        0.2036
      2 N          63.1954   88.0189   12.1854 N.ar    1  UNL1       -0.2147
      3 C          62.9454   89.4967   12.1279 C.ar    1  UNL1        0.0911
      4 C          61.8830   90.0430   11.2208 C.ar    1  UNL1        0.0801
      5 C          61.0705   89.1112   10.3711 C.ar    1  UNL1        0.2645
      6 O          60.0081   89.6574    9.4640 O.2     1  UNL1       -0.2668
      7 N          61.3205   87.6333   10.4287 N.ar    1  UNL1       -0.2667
      8 C          60.5081   86.7016    9.5791 C.3     1  UNL1        0.1363
      9 C          63.7579   90.4284   12.9775 C.ar    1  UNL1        0.0485
     10 C          63.7279   90.2995   14.4717 C.ar    1  UNL1        0.0244
     11 C          64.5404   91.2313   15.3213 C.ar    1  UNL1        0.0991
     12 N          65.3827   92.2919   14.6768 N.ar    1  UNL1       -0.2400
     13 C          65.4127   92.4208   13.1826 C.ar    1  UNL1        0.1285
     14 C          64.6003   91.4891   12.3329 C.ar    1  UNL1        0.1606
     15 F          64.6302   91.6180   10.8388 F       1  UNL1       -0.2025
     16 C          62.6331   83.3774   12.7234 C.3     1  UNL1        0.1350
     17 C          62.3831   84.8553   12.6658 C.3     1  UNL1        0.1230
     18 N          62.6330   85.6092   11.3934 N.pl3   1  UNL1       -0.2744
     19 C          63.1329   84.8853   10.1785 C.3     1  UNL1        0.1256
     20 C          63.3829   83.4074   10.2361 C.3     1  UNL1        0.1635
     21 O          63.1330   82.6535   11.5086 O.3     1  UNL1       -0.3527
     22 C          62.7614   83.2309   15.3142 C.3     1  UNL1        0.0026
     23 C          62.3831   82.6235   13.9959 C.3     1  UNL1        0.0289
     24 C          61.7549   81.2622   13.9500 C.3     1  UNL1        0.0026
@<TRIPOS>BOND
     1    22    23    1
     2    23    24    1
     3    23    16    1
     4    16    17    1
     5    17    18    1
     6    18     1    1
     7     1     2   ar
     8     2     3   ar
     9     3     9    1
    10     9    10   ar
    11    10    11   ar
    12    11    12   ar
    13    12    13   ar
    14    13    14   ar
    15    14    15    1
    16     3     4   ar
    17     4     5   ar
    18     5     6    2
    19     5     7   ar
    20     7     8    1
    21    18    19    1
    22    19    20    1
    23    20    21    1
    24    21    16    1
    25     7     1   ar
    26    14     9   ar
@<TRIPOS>MOLECULE
*****
 24 26 0 0 0
SMALL
GASTEIGER

@<TRIPOS>ATOM
      1 C          62.4404   88.4246   11.5827 C.ar    1  UNL1        0.2036
      2 N          62.9683   87.0469   11.8532 N.ar    1  UNL1       -0.2147
      3 C          62.3182   85.8558   11.2141 C.ar    1  UNL1        0.0911
      4 C          61.1403   86.0423   10.3043 C.ar    1  UNL1        0.0801
      5 C          60.6124   87.4200   10.0337 C.ar    1  UNL1        0.2645
      6 O          59.4345   87.6066    9.1240 O.2     1  UNL1       -0.2668
      7 N          61.2625   88.6112   10.6730 N.ar    1  UNL1       -0.2667
      8 C          60.7346   89.9889   10.4024 C.3     1  UNL1        0.1363
      9 C          62.8461   84.4780   11.4846 C.ar    1  UNL1        0.0485
     10 C          63.4965   83.6944   10.3833 C.ar    1  UNL1        0.0244
     11 C          64.0244   82.3167   10.6539 C.ar    1  UNL1        0.0991
     12 N          63.9019   81.7226   12.0257 N.ar    1  UNL1       -0.2400
     13 C          63.2515   82.5062   13.1271 C.ar    1  UNL1        0.1285
     14 C          62.7236   83.8839   12.8565 C.ar    1  UNL1        0.1606
     15 F          62.0733   84.6676   13.9578 F       1  UNL1       -0.2025
     16 C          63.8479   90.8911   14.3550 C.3     1  UNL1        0.1350
     17 C          63.1979   89.7000   13.7157 C.3     1  UNL1        0.1230
     18 N          63.0905   89.6158   12.2219 N.pl3   1  UNL1       -0.2744
     19 C          63.6331   90.7227   11.3674 C.3     1  UNL1        0.1256
     20 C          64.2832   91.9138   12.0067 C.3     1  UNL1        0.1635
     21 O          64.3906   91.9980   13.5004 O.3     1  UNL1       -0.3527
     22 C          63.3064   89.9306   16.7074 C.3     1  UNL1        0.0026
     23 C          63.9553   90.9753   15.8487 C.3     1  UNL1        0.0289
     24 C          64.7117   92.1042   16.4838 C.3     1  UNL1        0.0026
@<TRIPOS>BOND
     1    22    23    1
     2    23    24    1
     3    23    16    1
     4    16    17    1
     5    17    18    1
     6    18     1    1
     7     1     2   ar
     8     2     3   ar
     9     3     9    1
    10     9    10   ar
    11    10    11   ar
    12    11    12   ar
    13    12    13   ar
    14    13    14   ar
    15    14    15    1
    16     3     4   ar
    17     4     5   ar
    18     5     6    2
    19     5     7   ar
    20     7     8    1
    21    18    19    1
    22    19    20    1
    23    20    21    1
    24    21    16    1
    25     7     1   ar
    26    14     9   ar
@<TRIPOS>MOLECULE
*****
 24 26 0 0 0
SMALL
GASTEIGER

@<TRIPOS>ATOM
      1 C          62.4168   87.1800   11.4248 C.ar    1  UNL1        0.2036
      2 N          63.2575   88.1105   12.2479 N.ar    1  UNL1       -0.2147
      3 C          63.0037   89.5882   12.2035 C.ar    1  UNL1        0.0911
      4 C          61.9091   90.1354   11.3360 C.ar    1  UNL1        0.0801
      5 C          61.0684   89.2050   10.5129 C.ar    1  UNL1        0.2645
      6 O          59.9739   89.7521    9.6455 O.2     1  UNL1       -0.2668
      7 N          61.3223   87.7272   10.5573 N.ar    1  UNL1       -0.2667
      8 C          60.4816   86.7967    9.7342 C.3     1  UNL1        0.1363
      9 C          63.8444   90.5186   13.0266 C.ar    1  UNL1        0.0485
     10 C          64.7120   91.5399   12.3527 C.ar    1  UNL1        0.0244
     11 C          65.5527   92.4703   13.1757 C.ar    1  UNL1        0.0991
     12 N          65.5257   92.3796   14.6727 N.ar    1  UNL1       -0.2400
     13 C          64.6580   91.3583   15.3467 C.ar    1  UNL1        0.1285
     14 C          63.8173   90.4278   14.5236 C.ar    1  UNL1        0.1606
     15 F          62.9497   89.4066   15.1975 F       1  UNL1       -0.2025
     16 C          62.7012   83.4632   12.7866 C.3     1  UNL1        0.1350
     17 C          62.4474   84.9409   12.7421 C.3     1  UNL1        0.1230
     18 N          62.6707   85.7023   11.4692 N.pl3   1  UNL1       -0.2744
     19 C          63.1479   84.9860   10.2407 C.3     1  UNL1        0.1256
     20 C          63.4018   83.5084   10.2852 C.3     1  UNL1        0.1635
     21 O          63.1785   82.7470   11.5581 O.3     1  UNL1       -0.3527
     22 C          62.7522   83.3545   15.3818 C.3     1  UNL1        0.0026
     23 C          62.4779   82.7018   14.0595 C.3     1  UNL1        0.0289
     24 C          61.9801   81.2877   14.0101 C.3     1  UNL1        0.0026
@<TRIPOS>BOND
     1    22    23    1
     2    23    24    1
     3    23    16    1
     4    16    17    1
     5    17    18    1
     6    18     1    1
     7     1     2   ar
     8     2     3   ar
     9     3     9    1
    10     9    10   ar
    11    10    11   ar
    12    11    12   ar
    13    12    13   ar
    14    13    14   ar
    15    14    15    1
    16     3     4   ar
    17     4     5   ar
    18     5     6    2
    19     5     7   ar
    20     7     8    1
    21    18    19    1
    22    19    20    1
    23    20    21    1
    24    21    16    1
    25     7     1   ar
    26    14     9   ar
@<TRIPOS>MOLECULE
*****
 24 26 0 0 0
SMALL
GASTEIGER

@<TRIPOS>ATOM
      1 C          63.2482   86.7940   12.8173 C.ar    1  UNL1        0.2036
      2 N          63.8814   87.9283   13.5672 N.ar    1  UNL1       -0.2147
      3 C          63.7184   89.3361   13.0756 C.ar    1  UNL1        0.0911
      4 C          62.9221   89.6095   11.8341 C.ar    1  UNL1        0.0801
      5 C          62.2889   88.4752   11.0843 C.ar    1  UNL1        0.2645
      6 O          61.4926   88.7486    9.8429 O.2     1  UNL1       -0.2668
      7 N          62.4519   87.0674   11.5759 N.ar    1  UNL1       -0.2667
      8 C          61.8186   85.9331   10.8260 C.3     1  UNL1        0.1363
      9 C          64.3517   90.4704   13.8255 C.ar    1  UNL1        0.0485
     10 C          65.2939   91.4014   13.1217 C.ar    1  UNL1        0.0244
     11 C          65.9272   92.5357   13.8716 C.ar    1  UNL1        0.0991
     12 N          65.6182   92.7390   15.3252 N.ar    1  UNL1       -0.2400
     13 C          64.6759   91.8080   16.0291 C.ar    1  UNL1        0.1285
     14 C          64.0426   90.6737   15.2792 C.ar    1  UNL1        0.1606
     15 F          63.1004   89.7427   15.9830 F       1  UNL1       -0.2025
     16 C          63.3992   82.8284   12.8535 C.3     1  UNL1        0.1350
     17 C          63.2362   84.2362   12.3620 C.3     1  UNL1        0.1230
     18 N          63.4112   85.3862   13.3089 N.pl3   1  UNL1       -0.2744
     19 C          63.7492   85.1286   14.7474 C.3     1  UNL1        0.1256
     20 C          63.9122   83.7208   15.2390 C.3     1  UNL1        0.1635
     21 O          63.7372   82.5708   14.2920 O.3     1  UNL1       -0.3527
     22 C          63.5973   81.8328   10.4620 C.3     1  UNL1        0.0026
     23 C          63.2242   81.6783   11.9066 C.3     1  UNL1        0.0289
     24 C          62.6762   80.3738   12.4042 C.3     1  UNL1        0.0026
@<TRIPOS>BOND
     1    22    23    1
     2    23    24    1
     3    23    16    1
     4    16    17    1
     5    17    18    1
     6    18     1    1
     7     1     2   ar
     8     2     3   ar
     9     3     9    1
    10     9    10   ar
    11    10    11   ar
    12    11    12   ar
    13    12    13   ar
    14    13    14   ar
    15    14    15    1
    16     3     4   ar
    17     4     5   ar
    18     5     6    2
    19     5     7   ar
    20     7     8    1
    21    18    19    1
    22    19    20    1
    23    20    21    1
    24    21    16    1
    25     7     1   ar
    26    14     9   ar
@<TRIPOS>MOLECULE
*****
 24 26 0 0 0
SMALL
GASTEIGER

@<TRIPOS>ATOM
      1 C          64.6315   91.3971   13.0112 C.ar    1  UNL1        0.2036
      2 N          65.1038   92.3566   11.9594 N.ar    1  UNL1       -0.2147
      3 C          66.0490   93.4629   12.3234 C.ar    1  UNL1        0.0911
      4 C          66.5221   93.6097   13.7393 C.ar    1  UNL1        0.0801
      5 C          66.0498   92.6502   14.7911 C.ar    1  UNL1        0.2645
      6 O          66.5228   92.7970   16.2070 O.2     1  UNL1       -0.2668
      7 N          65.1045   91.5439   14.4270 N.ar    1  UNL1       -0.2667
      8 C          64.6322   90.5844   15.4789 C.3     1  UNL1        0.1363
      9 C          66.5213   94.4224   11.2716 C.ar    1  UNL1        0.0485
     10 C          66.2234   95.8865   11.4038 C.ar    1  UNL1        0.0244
     11 C          66.6956   96.8460   10.3520 C.ar    1  UNL1        0.0991
     12 N          67.4659   96.3414    9.1680 N.ar    1  UNL1       -0.2400
     13 C          67.7639   94.8772    9.0357 C.ar    1  UNL1        0.1285
     14 C          67.2916   93.9177   10.0875 C.ar    1  UNL1        0.1606
     15 F          67.5896   92.4536    9.9552 F       1  UNL1       -0.2025
     16 C          61.4827   89.4918   11.5263 C.3     1  UNL1        0.1350
     17 C          62.4280   90.5980   11.8904 C.3     1  UNL1        0.1230
     18 N          63.6862   90.2908   12.6471 N.pl3   1  UNL1       -0.2744
     19 C          63.9991   88.8773   13.0396 C.3     1  UNL1        0.1256
     20 C          63.0538   87.7711   12.6755 C.3     1  UNL1        0.1635
     21 O          61.7956   88.0783   11.9189 O.3     1  UNL1       -0.3527
     22 C          60.0971   89.3954    9.3307 C.3     1  UNL1        0.0026
     23 C          60.2245   89.7991   10.7697 C.3     1  UNL1        0.0289
     24 C          59.0936   90.5100   11.4520 C.3     1  UNL1        0.0026
@<TRIPOS>BOND
     1    22    23    1
     2    23    24    1
     3    23    16    1
     4    16    17    1
     5    17    18    1
     6    18     1    1
     7     1     2   ar
     8     2     3   ar
     9     3     9    1
    10     9    10   ar
    11    10    11   ar
    12    11    12   ar
    13    12    13   ar
    14    13    14   ar
    15    14    15    1
    16     3     4   ar
    17     4     5   ar
    18     5     6    2
    19     5     7   ar
    20     7     8    1
    21    18    19    1
    22    19    20    1
    23    20    21    1
    24    21    16    1
    25     7     1   ar
    26    14     9   ar
