@<TRIPOS>MOLECULE
*****
 27 29 0 0 0
SMALL
GASTEIGER

@<TRIPOS>ATOM
      1 C          63.5659   90.7736   11.7262 C.ar    1  UNL1        0.0291
      2 C          64.0189   90.4696   13.1235 C.ar    1  UNL1        0.0035
      3 C          65.1349   91.2607   13.7390 C.ar    1  UNL1        0.0144
      4 C          65.7978   92.3559   12.9572 C.ar    1  UNL1        0.0481
      5 N          66.9137   93.1470   13.5726 N.pl3   1  UNL1       -0.3568
      6 C          65.3447   92.6599   11.5598 C.ar    1  UNL1        0.0938
      7 C          64.2288   91.8687   10.9444 C.ar    1  UNL1        0.1456
      8 F          63.7757   92.1727    9.5471 F       1  UNL1       -0.2040
      9 H          67.2111   92.9475   14.4896 H       1  UNL1        0.1424
     10 H          67.3488   93.8657   13.0594 H       1  UNL1        0.1424
     11 C          61.6210   86.6288    8.9946 C.ar    1  UNL1       -0.0001
     12 C          60.1991   86.3201    8.6298 C.ar    1  UNL1        0.0963
     13 N          59.3321   87.4149    9.1769 N.ar    1  UNL1       -0.2273
     14 C          60.2180   88.4004    9.8799 C.ar    1  UNL1        0.1402
     15 N          59.9193   89.6773   10.6080 N.ar    1  UNL1       -0.3374
     16 C          61.0352   90.4684   11.2234 C.ar    1  UNL1        0.0735
     17 C          62.4499   89.9825   11.1107 C.ar    1  UNL1        0.0193
     18 C          62.7486   88.7056   10.3826 C.ar    1  UNL1        0.0043
     19 C          61.6326   87.9145    9.7672 C.ar    1  UNL1        0.0315
     20 H          58.9908   89.9962   10.6819 H       1  UNL1        0.1674
     21 C          62.7694   84.8575    7.4801 C.3     1  UNL1        0.0051
     22 C          62.8206   85.7978    8.6478 C.3     1  UNL1        0.0280
     23 C          66.0076   93.7550   10.7780 C.2     1  UNL1        0.2525
     24 O          65.4228   95.1363   10.7782 O.2     1  UNL1       -0.2698
     25 N          67.2553   93.4688    9.9961 N.am    1  UNL1       -0.2725
     26 C          67.9182   94.5639    9.2143 C.3     1  UNL1        0.1152
     27 C          67.8401   92.0874    9.9960 C.3     1  UNL1        0.1152
@<TRIPOS>BOND
     1    21    22    1
     2    22    11    1
     3    11    12   ar
     4    12    13   ar
     5    13    14   ar
     6    14    15   ar
     7    15    16   ar
     8    16    17   ar
     9    17     1    1
    10     1     2   ar
    11     2     3   ar
    12     3     4   ar
    13     4     5    1
    14     4     6   ar
    15     6    23    1
    16    23    24    2
    17    23    25   am
    18    25    26    1
    19    25    27    1
    20     6     7   ar
    21     7     8    1
    22    17    18   ar
    23    18    19   ar
    24    19    11   ar
    25    19    14    1
    26     7     1   ar
    27    15    20    1
    28     5     9    1
    29     5    10    1
@<TRIPOS>MOLECULE
*****
 27 29 0 0 0
SMALL
GASTEIGER

@<TRIPOS>ATOM
      1 C          64.0724   91.0943   12.3376 C.ar    1  UNL1        0.0291
      2 C          64.5083   90.8170   13.7458 C.ar    1  UNL1        0.0035
      3 C          65.5416   91.6883   14.3963 C.ar    1  UNL1        0.0144
      4 C          66.1389   92.8368   13.6386 C.ar    1  UNL1        0.0481
      5 N          67.1722   93.7081   14.2891 N.pl3   1  UNL1       -0.3568
      6 C          65.7029   93.1141   12.2304 C.ar    1  UNL1        0.0938
      7 C          64.6697   92.2428   11.5799 C.ar    1  UNL1        0.1456
      8 F          64.2337   92.5200   10.1716 F       1  UNL1       -0.2040
      9 H          67.4583   93.5262   15.2134 H       1  UNL1        0.1424
     10 H          67.5642   94.4619   13.7918 H       1  UNL1        0.1424
     11 C          62.0067   86.3686   10.9865 C.ar    1  UNL1       -0.0001
     12 C          60.7572   86.0692   10.2125 C.ar    1  UNL1        0.0963
     13 N          60.1180   87.3744    9.8413 N.ar    1  UNL1       -0.2273
     14 C          60.9725   88.4805   10.3859 C.ar    1  UNL1        0.1402
     15 N          60.8384   89.9734   10.3287 N.ar    1  UNL1       -0.3374
     16 C          61.8717   90.8446   10.9792 C.ar    1  UNL1        0.0735
     17 C          63.0390   90.2229   11.6870 C.ar    1  UNL1        0.0193
     18 C          63.1731   88.7301   11.7442 C.ar    1  UNL1        0.0043
     19 C          62.1398   87.8589   11.0936 C.ar    1  UNL1        0.0315
     20 H          60.0723   90.3814    9.8641 H       1  UNL1        0.1674
     21 C          62.5829   84.5840   12.7847 C.3     1  UNL1        0.0051
     22 C          62.9565   85.3556   11.5538 C.3     1  UNL1        0.0280
     23 C          66.3003   94.2626   11.4727 C.2     1  UNL1        0.2525
     24 O          66.0252   95.6718   11.9071 O.2     1  UNL1       -0.2698
     25 N          67.1726   94.0020   10.2806 N.am    1  UNL1       -0.2725
     26 C          67.7699   95.1505    9.5229 C.3     1  UNL1        0.1152
     27 C          67.4476   92.5928    9.8461 C.3     1  UNL1        0.1152
@<TRIPOS>BOND
     1    21    22    1
     2    22    11    1
     3    11    12   ar
     4    12    13   ar
     5    13    14   ar
     6    14    15   ar
     7    15    16   ar
     8    16    17   ar
     9    17     1    1
    10     1     2   ar
    11     2     3   ar
    12     3     4   ar
    13     4     5    1
    14     4     6   ar
    15     6    23    1
    16    23    24    2
    17    23    25   am
    18    25    26    1
    19    25    27    1
    20     6     7   ar
    21     7     8    1
    22    17    18   ar
    23    18    19   ar
    24    19    11   ar
    25    19    14    1
    26     7     1   ar
    27    15    20    1
    28     5     9    1
    29     5    10    1
@<TRIPOS>MOLECULE
*****
 27 29 0 0 0
SMALL
GASTEIGER

@<TRIPOS>ATOM
      1 C          64.1245   90.7341   12.2143 C.ar    1  UNL1        0.0291
      2 C          64.5198   90.8348   13.6577 C.ar    1  UNL1        0.0035
      3 C          65.3923   91.9643   14.1193 C.ar    1  UNL1        0.0144
      4 C          65.8695   92.9930   13.1375 C.ar    1  UNL1        0.0481
      5 N          66.7419   94.1225   13.5990 N.pl3   1  UNL1       -0.3568
      6 C          65.4742   92.8922   11.6939 C.ar    1  UNL1        0.0938
      7 C          64.6017   91.7627   11.2324 C.ar    1  UNL1        0.1456
      8 F          64.2064   91.6619    9.7889 F       1  UNL1       -0.2040
      9 H          67.0014   94.1887   14.5464 H       1  UNL1        0.1424
     10 H          67.0551   94.7976   12.9546 H       1  UNL1        0.1424
     11 C          60.4384   88.5706    9.0274 C.ar    1  UNL1       -0.0001
     12 C          59.8742   87.1809    9.0414 C.ar    1  UNL1        0.0963
     13 N          60.5348   86.4238   10.1552 N.ar    1  UNL1       -0.2273
     14 C          61.5072   87.3456   10.8295 C.ar    1  UNL1        0.1402
     15 N          62.4391   87.1482   11.9881 N.ar    1  UNL1       -0.3374
     16 C          63.3115   88.2777   12.4497 C.ar    1  UNL1        0.0735
     17 C          63.2520   89.6045   11.7526 C.ar    1  UNL1        0.0193
     18 C          62.3201   89.8019   10.5940 C.ar    1  UNL1        0.0043
     19 C          61.4477   88.6725   10.1324 C.ar    1  UNL1        0.0315
     20 H          62.4782   86.2773   12.4456 H       1  UNL1        0.1674
     21 C          59.3691   89.3341    6.7859 C.3     1  UNL1        0.0051
     22 C          60.0599   89.6663    8.0754 C.3     1  UNL1        0.0280
     23 C          65.9514   93.9209   10.7121 C.2     1  UNL1        0.2525
     24 O          65.2258   95.2273   10.5824 O.2     1  UNL1       -0.2698
     25 N          67.1542   93.6432    9.8599 N.am    1  UNL1       -0.2725
     26 C          67.6314   94.6719    8.8781 C.3     1  UNL1        0.1152
     27 C          67.8798   92.3367    9.9897 C.3     1  UNL1        0.1152
@<TRIPOS>BOND
     1    21    22    1
     2    22    11    1
     3    11    12   ar
     4    12    13   ar
     5    13    14   ar
     6    14    15   ar
     7    15    16   ar
     8    16    17   ar
     9    17     1    1
    10     1     2   ar
    11     2     3   ar
    12     3     4   ar
    13     4     5    1
    14     4     6   ar
    15     6    23    1
    16    23    24    2
    17    23    25   am
    18    25    26    1
    19    25    27    1
    20     6     7   ar
    21     7     8    1
    22    17    18   ar
    23    18    19   ar
    24    19    11   ar
    25    19    14    1
    26     7     1   ar
    27    15    20    1
    28     5     9    1
    29     5    10    1
@<TRIPOS>MOLECULE
*****
 27 29 0 0 0
SMALL
GASTEIGER

@<TRIPOS>ATOM
      1 C          63.9602   91.0365   11.5469 C.ar    1  UNL1        0.0291
      2 C          64.2428   92.0949   10.5223 C.ar    1  UNL1        0.0035
      3 C          65.1354   93.2509   10.8646 C.ar    1  UNL1        0.0144
      4 C          65.7453   93.3484   12.2316 C.ar    1  UNL1        0.0481
      5 N          66.6378   94.5043   12.5739 N.pl3   1  UNL1       -0.3568
      6 C          65.4625   92.2899   13.2562 C.ar    1  UNL1        0.0938
      7 C          64.5700   91.1340   12.9138 C.ar    1  UNL1        0.1456
      8 F          64.2873   90.0755   13.9385 F       1  UNL1       -0.2040
      9 H          66.8233   95.1989   11.9015 H       1  UNL1        0.1424
     10 H          67.0380   94.5682   13.4711 H       1  UNL1        0.1424
     11 C          60.1383   88.6669    8.6830 C.ar    1  UNL1       -0.0001
     12 C          59.5740   87.2839    8.8199 C.ar    1  UNL1        0.0963
     13 N          60.2812   86.6051    9.9553 N.ar    1  UNL1       -0.2273
     14 C          61.2826   87.5686   10.5200 C.ar    1  UNL1        0.1402
     15 N          62.2634   87.4503   11.6487 N.ar    1  UNL1       -0.3374
     16 C          63.1559   88.6062   11.9909 C.ar    1  UNL1        0.0735
     17 C          63.0676   89.8805   11.2046 C.ar    1  UNL1        0.0193
     18 C          62.0867   89.9989   10.0759 C.ar    1  UNL1        0.0043
     19 C          61.1942   88.8429    9.7336 C.ar    1  UNL1        0.0315
     20 H          62.3214   86.6139   12.1648 H       1  UNL1        0.1674
     21 C          59.3141   89.2667    6.2931 C.3     1  UNL1        0.0051
     22 C          59.7200   89.6937    7.6726 C.3     1  UNL1        0.0280
     23 C          66.0724   92.3874   14.6232 C.2     1  UNL1        0.2525
     24 O          65.2191   92.7557   15.8006 O.2     1  UNL1       -0.2698
     25 N          67.5355   92.1166   14.8127 N.am    1  UNL1       -0.2725
     26 C          68.1454   92.2141   16.1797 C.3     1  UNL1        0.1152
     27 C          68.3888   91.7483   13.6353 C.3     1  UNL1        0.1152
@<TRIPOS>BOND
     1    21    22    1
     2    22    11    1
     3    11    12   ar
     4    12    13   ar
     5    13    14   ar
     6    14    15   ar
     7    15    16   ar
     8    16    17   ar
     9    17     1    1
    10     1     2   ar
    11     2     3   ar
    12     3     4   ar
    13     4     5    1
    14     4     6   ar
    15     6    23    1
    16    23    24    2
    17    23    25   am
    18    25    26    1
    19    25    27    1
    20     6     7   ar
    21     7     8    1
    22    17    18   ar
    23    18    19   ar
    24    19    11   ar
    25    19    14    1
    26     7     1   ar
    27    15    20    1
    28     5     9    1
    29     5    10    1
@<TRIPOS>MOLECULE
*****
 27 29 0 0 0
SMALL
GASTEIGER

@<TRIPOS>ATOM
      1 C          63.7932   87.2267   13.7206 C.ar    1  UNL1        0.0291
      2 C          64.4775   88.1510   14.6836 C.ar    1  UNL1        0.0035
      3 C          64.4714   89.6305   14.4362 C.ar    1  UNL1        0.0144
      4 C          63.7810   90.1856   13.2258 C.ar    1  UNL1        0.0481
      5 N          63.7749   91.6651   12.9784 N.pl3   1  UNL1       -0.3568
      6 C          63.0967   89.2613   12.2627 C.ar    1  UNL1        0.0938
      7 C          63.1028   87.7819   12.5101 C.ar    1  UNL1        0.1456
      8 F          62.4184   86.8576   11.5471 F       1  UNL1       -0.2040
      9 H          64.2241   92.2717   13.6104 H       1  UNL1        0.1424
     10 H          63.3218   92.0294   12.1839 H       1  UNL1        0.1424
     11 C          63.4690   82.1427   12.1484 C.ar    1  UNL1       -0.0001
     12 C          63.5614   80.8911   12.9699 C.ar    1  UNL1        0.0963
     13 N          63.7730   81.2902   14.4003 N.ar    1  UNL1       -0.2273
     14 C          63.8115   82.7884   14.4628 C.ar    1  UNL1        0.1402
     15 N          63.9933   83.7409   15.6071 N.ar    1  UNL1       -0.3374
     16 C          63.9872   85.2203   15.3597 C.ar    1  UNL1        0.0735
     17 C          63.7993   85.7472   13.9679 C.ar    1  UNL1        0.0193
     18 C          63.6175   84.7947   12.8236 C.ar    1  UNL1        0.0043
     19 C          63.6235   83.3153   13.0710 C.ar    1  UNL1        0.0315
     20 H          64.1166   83.3951   16.5206 H       1  UNL1        0.1674
     21 C          64.0707   83.1598    9.8345 C.3     1  UNL1        0.0051
     22 C          63.2589   82.2100   10.6647 C.3     1  UNL1        0.0280
     23 C          62.4062   89.8165   11.0523 C.2     1  UNL1        0.2525
     24 O          63.2080   90.4654    9.9632 O.2     1  UNL1       -0.2698
     25 N          60.9141   89.7227   10.9310 N.am    1  UNL1       -0.2725
     26 C          60.2237   90.2779    9.7206 C.3     1  UNL1        0.1152
     27 C          60.1124   89.0737   12.0201 C.3     1  UNL1        0.1152
@<TRIPOS>BOND
     1    21    22    1
     2    22    11    1
     3    11    12   ar
     4    12    13   ar
     5    13    14   ar
     6    14    15   ar
     7    15    16   ar
     8    16    17   ar
     9    17     1    1
    10     1     2   ar
    11     2     3   ar
    12     3     4   ar
    13     4     5    1
    14     4     6   ar
    15     6    23    1
    16    23    24    2
    17    23    25   am
    18    25    26    1
    19    25    27    1
    20     6     7   ar
    21     7     8    1
    22    17    18   ar
    23    18    19   ar
    24    19    11   ar
    25    19    14    1
    26     7     1   ar
    27    15    20    1
    28     5     9    1
    29     5    10    1
@<TRIPOS>MOLECULE
*****
 27 29 0 0 0
SMALL
GASTEIGER

@<TRIPOS>ATOM
      1 C          63.4228   86.9249   15.4530 C.ar    1  UNL1        0.0291
      2 C          63.0561   87.4191   16.8208 C.ar    1  UNL1        0.0035
      3 C          63.1414   88.8830   17.1373 C.ar    1  UNL1        0.0144
      4 C          63.5935   89.8524   16.0857 C.ar    1  UNL1        0.0481
      5 N          63.6789   91.3162   16.4021 N.pl3   1  UNL1       -0.3568
      6 C          63.9603   89.3581   14.7178 C.ar    1  UNL1        0.0938
      7 C          63.8750   87.8944   14.4014 C.ar    1  UNL1        0.1456
      8 F          64.2417   87.4001   13.0335 F       1  UNL1       -0.2040
      9 H          63.4381   91.6406   17.2999 H       1  UNL1        0.1424
     10 H          63.9756   91.9525   15.7120 H       1  UNL1        0.1424
     11 C          64.0563   82.7084   12.2524 C.ar    1  UNL1       -0.0001
     12 C          63.7499   81.2644   12.5189 C.ar    1  UNL1        0.0963
     13 N          63.2002   81.1564   13.9103 N.ar    1  UNL1       -0.2273
     14 C          63.1668   82.5336   14.5038 C.ar    1  UNL1        0.1402
     15 N          62.7230   83.0382   15.8448 N.ar    1  UNL1       -0.3374
     16 C          62.8084   84.5019   16.1612 C.ar    1  UNL1        0.0735
     17 C          63.3375   85.4611   15.1365 C.ar    1  UNL1        0.0193
     18 C          63.7813   84.9565   13.7955 C.ar    1  UNL1        0.0043
     19 C          63.6960   83.4928   13.4791 C.ar    1  UNL1        0.0315
     20 H          62.3757   82.4086   16.5173 H       1  UNL1        0.1674
     21 C          63.7090   83.6460    9.8544 C.3     1  UNL1        0.0051
     22 C          64.6236   83.2695   10.9822 C.3     1  UNL1        0.0280
     23 C          64.4124   90.3276   13.6663 C.2     1  UNL1        0.2525
     24 O          65.7164   91.0519   13.8248 O.2     1  UNL1       -0.2698
     25 N          63.5606   90.5729   12.4563 N.am    1  UNL1       -0.2725
     26 C          64.0127   91.5424   11.4048 C.3     1  UNL1        0.1152
     27 C          62.2566   89.8486   12.2977 C.3     1  UNL1        0.1152
@<TRIPOS>BOND
     1    21    22    1
     2    22    11    1
     3    11    12   ar
     4    12    13   ar
     5    13    14   ar
     6    14    15   ar
     7    15    16   ar
     8    16    17   ar
     9    17     1    1
    10     1     2   ar
    11     2     3   ar
    12     3     4   ar
    13     4     5    1
    14     4     6   ar
    15     6    23    1
    16    23    24    2
    17    23    25   am
    18    25    26    1
    19    25    27    1
    20     6     7   ar
    21     7     8    1
    22    17    18   ar
    23    18    19   ar
    24    19    11   ar
    25    19    14    1
    26     7     1   ar
    27    15    20    1
    28     5     9    1
    29     5    10    1
@<TRIPOS>MOLECULE
*****
 27 29 0 0 0
SMALL
GASTEIGER

@<TRIPOS>ATOM
      1 C          63.0285   86.3640   12.3586 C.ar    1  UNL1        0.0291
      2 C          63.7029   86.8994   13.5868 C.ar    1  UNL1        0.0035
      3 C          64.3962   85.9621   14.5307 C.ar    1  UNL1        0.0144
      4 C          64.4149   84.4894   14.2465 C.ar    1  UNL1        0.0481
      5 N          65.1081   83.5522   15.1904 N.pl3   1  UNL1       -0.3568
      6 C          63.7404   83.9540   13.0183 C.ar    1  UNL1        0.0938
      7 C          63.0472   84.8913   12.0744 C.ar    1  UNL1        0.1456
      8 F          62.3726   84.3559   10.8462 F       1  UNL1       -0.2040
      9 H          65.5508   83.9036   15.9964 H       1  UNL1        0.1424
     10 H          65.1203   82.5856   15.0038 H       1  UNL1        0.1424
     11 C          60.0125   87.4512    8.0988 C.ar    1  UNL1       -0.0001
     12 C          59.5863   88.7834    7.5571 C.ar    1  UNL1        0.0963
     13 N          60.1650   89.8493    8.4397 N.ar    1  UNL1       -0.2273
     14 C          60.9489   89.1758    9.5269 C.ar    1  UNL1        0.1402
     15 N          61.7363   89.7207   10.6815 N.ar    1  UNL1       -0.3374
     16 C          62.4295   88.7834   11.6254 C.ar    1  UNL1        0.0735
     17 C          62.3352   87.3013   11.4147 C.ar    1  UNL1        0.0193
     18 C          61.5478   86.7564   10.2601 C.ar    1  UNL1        0.0043
     19 C          60.8546   87.6937    9.3162 C.ar    1  UNL1        0.0315
     20 H          61.7981   90.6935   10.8197 H       1  UNL1        0.1674
     21 C          60.7427   85.1869    7.0547 C.3     1  UNL1        0.0051
     22 C          59.6587   86.1116    7.5241 C.3     1  UNL1        0.0280
     23 C          63.7591   82.4813   12.7340 C.2     1  UNL1        0.2525
     24 O          64.7626   81.9156   11.7733 O.2     1  UNL1       -0.2698
     25 N          62.7743   81.5744   13.4104 N.am    1  UNL1       -0.2725
     26 C          62.7930   80.1016   13.1262 C.3     1  UNL1        0.1152
     27 C          61.7707   82.1401   14.3712 C.3     1  UNL1        0.1152
@<TRIPOS>BOND
     1    21    22    1
     2    22    11    1
     3    11    12   ar
     4    12    13   ar
     5    13    14   ar
     6    14    15   ar
     7    15    16   ar
     8    16    17   ar
     9    17     1    1
    10     1     2   ar
    11     2     3   ar
    12     3     4   ar
    13     4     5    1
    14     4     6   ar
    15     6    23    1
    16    23    24    2
    17    23    25   am
    18    25    26    1
    19    25    27    1
    20     6     7   ar
    21     7     8    1
    22    17    18   ar
    23    18    19   ar
    24    19    11   ar
    25    19    14    1
    26     7     1   ar
    27    15    20    1
    28     5     9    1
    29     5    10    1
@<TRIPOS>MOLECULE
*****
 27 29 0 0 0
SMALL
GASTEIGER

@<TRIPOS>ATOM
      1 C          62.8089   86.1306   12.8086 C.ar    1  UNL1        0.0291
      2 C          63.7897   87.0749   13.4380 C.ar    1  UNL1        0.0035
      3 C          63.8275   88.5121   13.0101 C.ar    1  UNL1        0.0144
      4 C          62.8845   89.0049   11.9528 C.ar    1  UNL1        0.0481
      5 N          62.9224   90.4421   11.5249 N.pl3   1  UNL1       -0.3568
      6 C          61.9037   88.0605   11.3233 C.ar    1  UNL1        0.0938
      7 C          61.8659   86.6233   11.7513 C.ar    1  UNL1        0.1456
      8 F          60.8851   85.6789   11.1218 F       1  UNL1       -0.2040
      9 H          63.5661   91.0619   11.9380 H       1  UNL1        0.1424
     10 H          62.3035   90.7655   10.8309 H       1  UNL1        0.1424
     11 C          62.8677   80.8847   11.8590 C.ar    1  UNL1       -0.0001
     12 C          62.7880   79.7465   12.8327 C.ar    1  UNL1        0.0963
     13 N          62.6814   80.3240   14.2130 N.ar    1  UNL1       -0.2273
     14 C          62.6953   81.8191   14.0924 C.ar    1  UNL1        0.1402
     15 N          62.6180   82.9096   15.1193 N.ar    1  UNL1       -0.3374
     16 C          62.6559   84.3468   14.6914 C.ar    1  UNL1        0.0735
     17 C          62.7710   84.6933   13.2365 C.ar    1  UNL1        0.0193
     18 C          62.8483   83.6028   12.2096 C.ar    1  UNL1        0.0043
     19 C          62.8105   82.1656   12.6375 C.ar    1  UNL1        0.0315
     20 H          62.5424   82.6822   16.0742 H       1  UNL1        0.1674
     21 C          62.8047   79.4284    9.7084 C.3     1  UNL1        0.0051
     22 C          62.9843   80.7634   10.3685 C.3     1  UNL1        0.0280
     23 C          60.9608   88.5533   10.2660 C.2     1  UNL1        0.2525
     24 O          60.0652   89.7236   10.5461 O.2     1  UNL1       -0.2698
     25 N          60.9133   87.8758    8.9286 N.am    1  UNL1       -0.2725
     26 C          59.9704   88.3686    7.8712 C.3     1  UNL1        0.1152
     27 C          61.8089   86.7055    8.6484 C.3     1  UNL1        0.1152
@<TRIPOS>BOND
     1    21    22    1
     2    22    11    1
     3    11    12   ar
     4    12    13   ar
     5    13    14   ar
     6    14    15   ar
     7    15    16   ar
     8    16    17   ar
     9    17     1    1
    10     1     2   ar
    11     2     3   ar
    12     3     4   ar
    13     4     5    1
    14     4     6   ar
    15     6    23    1
    16    23    24    2
    17    23    25   am
    18    25    26    1
    19    25    27    1
    20     6     7   ar
    21     7     8    1
    22    17    18   ar
    23    18    19   ar
    24    19    11   ar
    25    19    14    1
    26     7     1   ar
    27    15    20    1
    28     5     9    1
    29     5    10    1
@<TRIPOS>MOLECULE
*****
 27 29 0 0 0
SMALL
GASTEIGER

@<TRIPOS>ATOM
      1 C          63.3705   88.3279   13.1083 C.ar    1  UNL1        0.0291
      2 C          62.5407   88.6610   11.9039 C.ar    1  UNL1        0.0035
      3 C          62.0542   87.5656   11.0020 C.ar    1  UNL1        0.0144
      4 C          62.3975   86.1371   11.3045 C.ar    1  UNL1        0.0481
      5 N          61.9110   85.0416   10.4027 N.pl3   1  UNL1       -0.3568
      6 C          63.2273   85.8040   12.5090 C.ar    1  UNL1        0.0938
      7 C          63.7138   86.8994   13.4108 C.ar    1  UNL1        0.1456
      8 F          64.5436   86.5664   14.6152 F       1  UNL1       -0.2040
      9 H          61.3664   85.2602    9.6122 H       1  UNL1        0.1424
     10 H          62.1364   84.1041   10.6013 H       1  UNL1        0.1424
     11 C          66.5254   92.4582   14.2963 C.ar    1  UNL1       -0.0001
     12 C          66.5620   93.2924   15.5424 C.ar    1  UNL1        0.0963
     13 N          65.5142   92.7707   16.4804 N.ar    1  UNL1       -0.2273
     14 C          64.8299   91.6141   15.8140 C.ar    1  UNL1        0.1402
     15 N          63.7185   90.7119   16.2620 N.ar    1  UNL1       -0.3374
     16 C          63.2320   89.6165   15.3601 C.ar    1  UNL1        0.0735
     17 C          63.8570   89.4234   14.0102 C.ar    1  UNL1        0.0193
     18 C          64.9684   90.3256   13.5622 C.ar    1  UNL1        0.0043
     19 C          65.4548   91.4210   14.4641 C.ar    1  UNL1        0.0315
     20 H          63.3083   90.8387   17.1479 H       1  UNL1        0.1674
     21 C          68.4836   91.6299   12.8032 C.3     1  UNL1        0.0051
     22 C          67.4048   92.6309   13.0935 C.3     1  UNL1        0.0280
     23 C          63.5706   84.3755   12.8115 C.2     1  UNL1        0.2525
     24 O          64.4835   83.6137   11.8969 O.2     1  UNL1       -0.2698
     25 N          63.0011   83.7088   14.0285 N.am    1  UNL1       -0.2725
     26 C          63.3444   82.2803   14.3310 C.3     1  UNL1        0.1152
     27 C          62.0882   84.4707   14.9431 C.3     1  UNL1        0.1152
@<TRIPOS>BOND
     1    21    22    1
     2    22    11    1
     3    11    12   ar
     4    12    13   ar
     5    13    14   ar
     6    14    15   ar
     7    15    16   ar
     8    16    17   ar
     9    17     1    1
    10     1     2   ar
    11     2     3   ar
    12     3     4   ar
    13     4     5    1
    14     4     6   ar
    15     6    23    1
    16    23    24    2
    17    23    25   am
    18    25    26    1
    19    25    27    1
    20     6     7   ar
    21     7     8    1
    22    17    18   ar
    23    18    19   ar
    24    19    11   ar
    25    19    14    1
    26     7     1   ar
    27    15    20    1
    28     5     9    1
    29     5    10    1
