@<TRIPOS>MOLECULE
*****
 30 33 0 0 0
SMALL
GASTEIGER

@<TRIPOS>ATOM
      1 C          63.7870   89.0477   15.5449 C.ar    1  UNL1        0.0391
      2 C          63.1030   88.4716   16.7492 C.ar    1  UNL1        0.0045
      3 C          63.0992   86.9882   16.9718 C.ar    1  UNL1        0.0147
      4 C          63.7796   86.0808   15.9900 C.ar    1  UNL1        0.0484
      5 C          64.4636   86.6568   14.7857 C.ar    1  UNL1        0.0147
      6 C          64.4673   88.1403   14.5632 C.ar    1  UNL1        0.0045
      7 C          63.7907   90.5310   15.3224 C.2     1  UNL1        0.1983
      8 O          63.4197   91.4583   16.4414 O.2     1  UNL1       -0.2865
      9 C          63.3332   90.7634   12.7755 C.2     1  UNL1        0.1451
     10 C          63.7080   91.3195   11.4336 C.2     1  UNL1        0.0838
     11 C          64.9152   92.1993   11.2971 C.2     1  UNL1        0.2267
     12 N          65.5266   92.8877   10.1129 N.2     1  UNL1       -0.0385
     13 C          66.7369   93.6368   10.5863 C.2     1  UNL1        0.3473
     14 C          67.6503   94.4659    9.7328 C.3     1  UNL1        0.1363
     15 N          66.8734   93.4115   12.0629 N.2     1  UNL1       -0.0551
     16 C          65.7475   92.5230   12.5023 C.3     1  UNL1        0.3015
     17 C          65.3727   91.9669   13.8440 C.2     1  UNL1        0.0410
     18 C          64.1655   91.0871   13.9805 C.2     1  UNL1        0.0733
     19 C          61.1463   89.7736   11.7815 C.3     1  UNL1        0.2525
     20 O          62.1259   89.8836   12.9120 O.2     1  UNL1       -0.4712
     21 N          63.7759   84.5974   16.2125 N.pl3   1  UNL1       -0.3108
     22 H          63.9392   84.2344   17.1129 H       1  UNL1        0.1523
     23 C          63.5232   83.6672   15.0632 C.ar    1  UNL1        0.0763
     24 C          62.2238   82.9236   14.9719 C.ar    1  UNL1        0.0192
     25 C          61.9712   81.9934   13.8226 C.ar    1  UNL1        0.0311
     26 C          63.0180   81.8068   12.7646 C.ar    1  UNL1        0.1425
     27 F          62.7653   80.8766   11.6153 F       1  UNL1       -0.2041
     28 C          64.3175   82.5505   12.8559 C.ar    1  UNL1        0.0605
     29 C          64.5700   83.4807   14.0052 C.ar    1  UNL1        0.1556
     30 F          65.8695   84.2243   14.0965 F       1  UNL1       -0.2028
@<TRIPOS>BOND
     1    19    20    1
     2    20     9    1
     3     9    10    2
     4    10    11    1
     5    11    12    2
     6    12    13    1
     7    13    14    1
     8    13    15    2
     9    15    16    1
    10    16    17    1
    11    17    18    2
    12    18     7    1
    13     7     8    2
    14     7     1    1
    15     1     2   ar
    16     2     3   ar
    17     3     4   ar
    18     4    21    1
    19    21    23    1
    20    23    24   ar
    21    24    25   ar
    22    25    26   ar
    23    26    27    1
    24    26    28   ar
    25    28    29   ar
    26    29    30    1
    27     4     5   ar
    28     5     6   ar
    29    18     9    1
    30     6     1   ar
    31    16    11    1
    32    29    23   ar
    33    21    22    1
@<TRIPOS>MOLECULE
*****
 30 33 0 0 0
SMALL
GASTEIGER

@<TRIPOS>ATOM
      1 C          62.4655   89.0118   11.3586 C.ar    1  UNL1        0.0391
      2 C          62.6347   90.1071   10.3478 C.ar    1  UNL1        0.0045
      3 C          63.5275   91.2743   10.6487 C.ar    1  UNL1        0.0147
      4 C          64.2512   91.3461   11.9607 C.ar    1  UNL1        0.0484
      5 C          64.0821   90.2509   12.9715 C.ar    1  UNL1        0.0147
      6 C          63.1893   89.0837   12.6705 C.ar    1  UNL1        0.0045
      7 C          61.5727   87.8446   11.0576 C.2     1  UNL1        0.1983
      8 O          60.1302   88.0724   10.7157 O.2     1  UNL1       -0.2865
      9 C          62.4540   85.7362    9.8215 C.2     1  UNL1        0.1451
     10 C          63.0039   84.3412    9.8625 C.2     1  UNL1        0.0838
     11 C          63.2224   83.6597   11.1807 C.2     1  UNL1        0.2267
     12 N          63.7467   82.2990   11.5324 N.2     1  UNL1       -0.0385
     13 C          63.7394   82.1715   13.0270 C.2     1  UNL1        0.3473
     14 C          64.1830   80.9727   13.8118 C.3     1  UNL1        0.1363
     15 N          63.2105   83.4534   13.5990 N.2     1  UNL1       -0.0551
     16 C          62.8910   84.3731   12.4579 C.3     1  UNL1        0.3015
     17 C          62.3411   85.7681   12.4169 C.2     1  UNL1        0.0410
     18 C          62.1226   86.4496   11.0986 C.2     1  UNL1        0.0733
     19 C          61.0321   86.0791    7.6741 C.3     1  UNL1        0.2525
     20 O          62.2355   86.4178    8.5032 O.2     1  UNL1       -0.4712
     21 N          65.1440   92.5133   12.2617 N.pl3   1  UNL1       -0.3108
     22 H          65.0791   93.3346   11.7227 H       1  UNL1        0.1523
     23 C          66.1358   92.4291   13.3838 C.ar    1  UNL1        0.0763
     24 C          65.7013   92.7110   14.7916 C.ar    1  UNL1        0.0192
     25 C          66.6932   92.6268   15.9137 C.ar    1  UNL1        0.0311
     26 C          68.1196   92.2607   15.6281 C.ar    1  UNL1        0.1425
     27 F          69.1114   92.1765   16.7503 F       1  UNL1       -0.2041
     28 C          68.5541   91.9788   14.2204 C.ar    1  UNL1        0.0605
     29 C          67.5622   92.0630   13.0983 C.ar    1  UNL1        0.1556
     30 F          67.9967   91.7812   11.6905 F       1  UNL1       -0.2028
@<TRIPOS>BOND
     1    19    20    1
     2    20     9    1
     3     9    10    2
     4    10    11    1
     5    11    12    2
     6    12    13    1
     7    13    14    1
     8    13    15    2
     9    15    16    1
    10    16    17    1
    11    17    18    2
    12    18     7    1
    13     7     8    2
    14     7     1    1
    15     1     2   ar
    16     2     3   ar
    17     3     4   ar
    18     4    21    1
    19    21    23    1
    20    23    24   ar
    21    24    25   ar
    22    25    26   ar
    23    26    27    1
    24    26    28   ar
    25    28    29   ar
    26    29    30    1
    27     4     5   ar
    28     5     6   ar
    29    18     9    1
    30     6     1   ar
    31    16    11    1
    32    29    23   ar
    33    21    22    1
@<TRIPOS>MOLECULE
*****
 30 33 0 0 0
SMALL
GASTEIGER

@<TRIPOS>ATOM
      1 C          64.1445   90.7658   13.2565 C.ar    1  UNL1        0.0391
      2 C          64.0086   91.4057   11.9067 C.ar    1  UNL1        0.0045
      3 C          64.9681   92.4790   11.4854 C.ar    1  UNL1        0.0147
      4 C          66.0635   92.9124   12.4140 C.ar    1  UNL1        0.0484
      5 C          66.1995   92.2725   13.7638 C.ar    1  UNL1        0.0147
      6 C          65.2400   91.1992   14.1851 C.ar    1  UNL1        0.0045
      7 C          63.1851   89.6925   13.6778 C.2     1  UNL1        0.1983
      8 O          62.7239   89.6161   15.1030 O.2     1  UNL1       -0.2865
      9 C          63.1555   87.2721   12.7341 C.2     1  UNL1        0.1451
     10 C          62.6573   86.2751   11.7301 C.2     1  UNL1        0.0838
     11 C          61.6905   86.7020   10.6656 C.2     1  UNL1        0.2267
     12 N          61.0309   85.9490    9.5485 N.2     1  UNL1       -0.0385
     13 C          60.1546   86.9074    8.7977 C.2     1  UNL1        0.3473
     14 C          59.3087   86.5783    7.6035 C.3     1  UNL1        0.1363
     15 N          60.2726   88.2526    9.4508 N.2     1  UNL1       -0.0551
     16 C          61.2219   88.1256   10.6053 C.3     1  UNL1        0.3015
     17 C          61.7201   89.1224   11.6093 C.2     1  UNL1        0.0410
     18 C          62.6869   88.6956   12.6738 C.2     1  UNL1        0.0733
     19 C          63.9365   85.5310   14.4974 C.3     1  UNL1        0.2525
     20 O          64.1224   86.8452   13.7986 O.2     1  UNL1       -0.4712
     21 N          67.0230   93.9856   11.9927 N.pl3   1  UNL1       -0.3108
     22 H          67.7851   94.2192   12.5706 H       1  UNL1        0.1523
     23 C          66.8213   94.7031   10.6909 C.ar    1  UNL1        0.0763
     24 C          65.9570   95.9278   10.6356 C.ar    1  UNL1        0.0192
     25 C          65.7554   96.6452    9.3338 C.ar    1  UNL1        0.0311
     26 C          66.4181   96.1380    8.0873 C.ar    1  UNL1        0.1425
     27 F          66.2164   96.8555    6.7856 F       1  UNL1       -0.2041
     28 C          67.2824   94.9134    8.1427 C.ar    1  UNL1        0.0605
     29 C          67.4840   94.1959    9.4445 C.ar    1  UNL1        0.1556
     30 F          68.3484   92.9713    9.4999 F       1  UNL1       -0.2028
@<TRIPOS>BOND
     1    19    20    1
     2    20     9    1
     3     9    10    2
     4    10    11    1
     5    11    12    2
     6    12    13    1
     7    13    14    1
     8    13    15    2
     9    15    16    1
    10    16    17    1
    11    17    18    2
    12    18     7    1
    13     7     8    2
    14     7     1    1
    15     1     2   ar
    16     2     3   ar
    17     3     4   ar
    18     4    21    1
    19    21    23    1
    20    23    24   ar
    21    24    25   ar
    22    25    26   ar
    23    26    27    1
    24    26    28   ar
    25    28    29   ar
    26    29    30    1
    27     4     5   ar
    28     5     6   ar
    29    18     9    1
    30     6     1   ar
    31    16    11    1
    32    29    23   ar
    33    21    22    1
@<TRIPOS>MOLECULE
*****
 30 33 0 0 0
SMALL
GASTEIGER

@<TRIPOS>ATOM
      1 C          63.5455   89.8839   12.6532 C.ar    1  UNL1        0.0391
      2 C          63.5088   88.3863   12.7301 C.ar    1  UNL1        0.0045
      3 C          62.5111   87.6176   11.9154 C.ar    1  UNL1        0.0147
      4 C          61.5500   88.3467   11.0237 C.ar    1  UNL1        0.0484
      5 C          61.5867   89.8441   10.9467 C.ar    1  UNL1        0.0147
      6 C          62.5845   90.6128   11.7615 C.ar    1  UNL1        0.0045
      7 C          64.5432   90.6525   13.4679 C.2     1  UNL1        0.1983
      8 O          64.9028   90.1870   14.8476 O.2     1  UNL1       -0.2865
      9 C          65.7492   92.9262   13.8230 C.2     1  UNL1        0.1451
     10 C          66.3873   94.1605   13.2578 C.2     1  UNL1        0.0838
     11 C          66.4575   94.3553   11.7722 C.2     1  UNL1        0.2267
     12 N          67.0219   95.4612   10.9305 N.2     1  UNL1       -0.0385
     13 C          66.8029   95.1052    9.4899 C.2     1  UNL1        0.3473
     14 C          67.2118   95.9303    8.3058 C.3     1  UNL1        0.1363
     15 N          66.1031   93.7793    9.4413 N.2     1  UNL1       -0.0551
     16 C          65.8896   93.3158   10.8518 C.3     1  UNL1        0.3015
     17 C          65.2515   92.0816   11.4170 C.2     1  UNL1        0.0410
     18 C          65.1813   91.8868   12.9027 C.2     1  UNL1        0.0733
     19 C          66.9326   92.7760   16.1311 C.3     1  UNL1        0.2525
     20 O          65.6789   92.7314   15.3087 O.2     1  UNL1       -0.4712
     21 N          60.5523   87.5780   10.2090 N.pl3   1  UNL1       -0.3108
     22 H          59.5907   87.6587   10.4042 H       1  UNL1        0.1523
     23 C          61.0197   86.6865    9.0969 C.ar    1  UNL1        0.0763
     24 C          62.4385   86.2004    9.0712 C.ar    1  UNL1        0.0192
     25 C          62.9058   85.3089    7.9590 C.ar    1  UNL1        0.0311
     26 C          61.9544   84.9034    6.8727 C.ar    1  UNL1        0.1425
     27 F          62.4217   84.0118    5.7606 F       1  UNL1       -0.2041
     28 C          60.5355   85.3894    6.8984 C.ar    1  UNL1        0.0605
     29 C          60.0682   86.2810    8.0105 C.ar    1  UNL1        0.1556
     30 F          58.6494   86.7670    8.0362 F       1  UNL1       -0.2028
@<TRIPOS>BOND
     1    19    20    1
     2    20     9    1
     3     9    10    2
     4    10    11    1
     5    11    12    2
     6    12    13    1
     7    13    14    1
     8    13    15    2
     9    15    16    1
    10    16    17    1
    11    17    18    2
    12    18     7    1
    13     7     8    2
    14     7     1    1
    15     1     2   ar
    16     2     3   ar
    17     3     4   ar
    18     4    21    1
    19    21    23    1
    20    23    24   ar
    21    24    25   ar
    22    25    26   ar
    23    26    27    1
    24    26    28   ar
    25    28    29   ar
    26    29    30    1
    27     4     5   ar
    28     5     6   ar
    29    18     9    1
    30     6     1   ar
    31    16    11    1
    32    29    23   ar
    33    21    22    1
@<TRIPOS>MOLECULE
*****
 30 33 0 0 0
SMALL
GASTEIGER

@<TRIPOS>ATOM
      1 C          63.5542   88.0402   13.7908 C.ar    1  UNL1        0.0391
      2 C          64.3769   87.4931   14.9195 C.ar    1  UNL1        0.0045
      3 C          64.7373   86.0373   14.9479 C.ar    1  UNL1        0.0147
      4 C          64.2749   85.1286   13.8476 C.ar    1  UNL1        0.0484
      5 C          63.4522   85.6756   12.7190 C.ar    1  UNL1        0.0147
      6 C          63.0918   87.1315   12.6906 C.ar    1  UNL1        0.0045
      7 C          63.1938   89.4960   13.7623 C.2     1  UNL1        0.1983
      8 O          61.7527   89.9120   13.7627 O.2     1  UNL1       -0.2865
      9 C          64.5288   91.3189   12.4798 C.2     1  UNL1        0.1451
     10 C          65.6097   92.3586   12.4511 C.2     1  UNL1        0.0838
     11 C          66.4364   92.6151   13.6761 C.2     1  UNL1        0.2267
     12 N          67.5623   93.5688   13.9455 N.2     1  UNL1       -0.0385
     13 C          68.0040   93.3750   15.3658 C.2     1  UNL1        0.3473
     14 C          69.1054   94.1233   16.0566 C.3     1  UNL1        0.1363
     15 N          67.1511   92.3015   15.9742 N.2     1  UNL1       -0.0551
     16 C          66.1822   91.8318   14.9299 C.3     1  UNL1        0.3015
     17 C          65.1014   90.7922   14.9586 C.2     1  UNL1        0.0410
     18 C          64.2747   90.5357   13.7336 C.2     1  UNL1        0.0733
     19 C          63.8246   91.9668   10.0643 C.3     1  UNL1        0.2525
     20 O          63.7020   91.0624   11.2547 O.2     1  UNL1       -0.4712
     21 N          64.6353   83.6728   13.8761 N.pl3   1  UNL1       -0.3108
     22 H          65.1973   83.3189   14.6028 H       1  UNL1        0.1523
     23 C          64.1393   82.7561   12.7974 C.ar    1  UNL1        0.0763
     24 C          64.5766   82.9631   11.3775 C.ar    1  UNL1        0.0192
     25 C          64.0805   82.0463   10.2988 C.ar    1  UNL1        0.0311
     26 C          63.1472   80.9227   10.6399 C.ar    1  UNL1        0.1425
     27 F          62.6512   80.0060    9.5611 F       1  UNL1       -0.2041
     28 C          62.7098   80.7158   12.0597 C.ar    1  UNL1        0.0605
     29 C          63.2059   81.6325   13.1384 C.ar    1  UNL1        0.1556
     30 F          62.7686   81.4256   14.5582 F       1  UNL1       -0.2028
@<TRIPOS>BOND
     1    19    20    1
     2    20     9    1
     3     9    10    2
     4    10    11    1
     5    11    12    2
     6    12    13    1
     7    13    14    1
     8    13    15    2
     9    15    16    1
    10    16    17    1
    11    17    18    2
    12    18     7    1
    13     7     8    2
    14     7     1    1
    15     1     2   ar
    16     2     3   ar
    17     3     4   ar
    18     4    21    1
    19    21    23    1
    20    23    24   ar
    21    24    25   ar
    22    25    26   ar
    23    26    27    1
    24    26    28   ar
    25    28    29   ar
    26    29    30    1
    27     4     5   ar
    28     5     6   ar
    29    18     9    1
    30     6     1   ar
    31    16    11    1
    32    29    23   ar
    33    21    22    1
@<TRIPOS>MOLECULE
*****
 30 33 0 0 0
SMALL
GASTEIGER

@<TRIPOS>ATOM
      1 C          63.7863   89.4558   13.6605 C.ar    1  UNL1        0.0391
      2 C          64.2277   88.1540   14.2609 C.ar    1  UNL1        0.0045
      3 C          63.8678   86.8598   13.5934 C.ar    1  UNL1        0.0147
      4 C          63.0664   86.8675   12.3254 C.ar    1  UNL1        0.0484
      5 C          62.6250   88.1692   11.7250 C.ar    1  UNL1        0.0147
      6 C          62.9849   89.4634   12.3925 C.ar    1  UNL1        0.0045
      7 C          64.1462   90.7500   14.3279 C.2     1  UNL1        0.1983
      8 O          63.7073   91.0143   15.7376 O.2     1  UNL1       -0.2865
      9 C          65.9449   92.6248   14.3180 C.2     1  UNL1        0.1451
     10 C          66.7438   93.6547   13.5756 C.2     1  UNL1        0.0838
     11 C          66.5430   93.8396   12.1007 C.2     1  UNL1        0.2267
     12 N          67.1803   94.7677   11.1096 N.2     1  UNL1       -0.0385
     13 C          66.5745   94.4964    9.7645 C.2     1  UNL1        0.3473
     14 C          66.9198   95.1977    8.4843 C.3     1  UNL1        0.1363
     15 N          65.5627   93.4006    9.9243 N.2     1  UNL1       -0.0551
     16 C          65.5432   92.9946   11.3682 C.3     1  UNL1        0.3015
     17 C          64.7443   91.9648   12.1106 C.2     1  UNL1        0.0410
     18 C          64.9452   91.7799   13.5855 C.2     1  UNL1        0.0733
     19 C          67.5274   92.4941   16.3745 C.3     1  UNL1        0.2525
     20 O          66.1457   92.4399   15.7931 O.2     1  UNL1       -0.4712
     21 N          62.7065   85.5733   11.6579 N.pl3   1  UNL1       -0.3108
     22 H          62.2527   85.5796   10.7843 H       1  UNL1        0.1523
     23 C          63.0379   84.2696   12.3216 C.ar    1  UNL1        0.0763
     24 C          62.4324   83.9295   13.6512 C.ar    1  UNL1        0.0192
     25 C          62.7639   82.6258   14.3148 C.ar    1  UNL1        0.0311
     26 C          63.7008   81.6620   13.6489 C.ar    1  UNL1        0.1425
     27 F          64.0322   80.3583   14.3126 F       1  UNL1       -0.2041
     28 C          64.3063   82.0021   12.3193 C.ar    1  UNL1        0.0605
     29 C          63.9748   83.3059   11.6557 C.ar    1  UNL1        0.1556
     30 F          64.5803   83.6459   10.3262 F       1  UNL1       -0.2028
@<TRIPOS>BOND
     1    19    20    1
     2    20     9    1
     3     9    10    2
     4    10    11    1
     5    11    12    2
     6    12    13    1
     7    13    14    1
     8    13    15    2
     9    15    16    1
    10    16    17    1
    11    17    18    2
    12    18     7    1
    13     7     8    2
    14     7     1    1
    15     1     2   ar
    16     2     3   ar
    17     3     4   ar
    18     4    21    1
    19    21    23    1
    20    23    24   ar
    21    24    25   ar
    22    25    26   ar
    23    26    27    1
    24    26    28   ar
    25    28    29   ar
    26    29    30    1
    27     4     5   ar
    28     5     6   ar
    29    18     9    1
    30     6     1   ar
    31    16    11    1
    32    29    23   ar
    33    21    22    1
@<TRIPOS>MOLECULE
*****
 30 33 0 0 0
SMALL
GASTEIGER

@<TRIPOS>ATOM
      1 C          63.9923   89.7199   15.5103 C.ar    1  UNL1        0.0391
      2 C          64.5421   88.8573   14.4131 C.ar    1  UNL1        0.0045
      3 C          64.3247   87.3735   14.4451 C.ar    1  UNL1        0.0147
      4 C          63.5575   86.7522   15.5745 C.ar    1  UNL1        0.0484
      5 C          63.0077   87.6146   16.6716 C.ar    1  UNL1        0.0147
      6 C          63.2251   89.0985   16.6396 C.ar    1  UNL1        0.0045
      7 C          64.2097   91.2037   15.4783 C.2     1  UNL1        0.1983
      8 O          63.5294   92.0832   16.4850 O.2     1  UNL1       -0.2865
      9 C          66.5074   92.2084   14.7993 C.2     1  UNL1        0.1451
     10 C          67.4051   92.8126   13.7604 C.2     1  UNL1        0.0838
     11 C          66.9028   93.0162   12.3618 C.2     1  UNL1        0.2267
     12 N          67.5525   93.5835   11.1346 N.2     1  UNL1       -0.0385
     13 C          66.5540   93.5335   10.0164 C.2     1  UNL1        0.3473
     14 C          66.7822   93.9998    8.6091 C.3     1  UNL1        0.1363
     15 N          65.2872   92.9353   10.5524 N.2     1  UNL1       -0.0551
     16 C          65.5027   92.6156   12.0020 C.3     1  UNL1        0.3015
     17 C          64.6051   92.0114   13.0408 C.2     1  UNL1        0.0410
     18 C          65.1074   91.8079   14.4395 C.2     1  UNL1        0.0733
     19 C          68.4540   92.2514   16.5195 C.3     1  UNL1        0.2525
     20 O          67.0097   92.0048   16.1980 O.2     1  UNL1       -0.4712
     21 N          63.3401   85.2684   15.6065 N.pl3   1  UNL1       -0.3108
     22 H          63.1855   84.8119   16.4650 H       1  UNL1        0.1523
     23 C          63.3583   84.4800   14.3305 C.ar    1  UNL1        0.0763
     24 C          62.6546   85.0051   13.1144 C.ar    1  UNL1        0.0192
     25 C          62.6728   84.2166   11.8384 C.ar    1  UNL1        0.0311
     26 C          63.3947   82.9031   11.7786 C.ar    1  UNL1        0.1425
     27 F          63.4129   82.1147   10.5026 F       1  UNL1       -0.2041
     28 C          64.0984   82.3780   12.9947 C.ar    1  UNL1        0.0605
     29 C          64.0801   83.1665   14.2707 C.ar    1  UNL1        0.1556
     30 F          64.7838   82.6414   15.4869 F       1  UNL1       -0.2028
@<TRIPOS>BOND
     1    19    20    1
     2    20     9    1
     3     9    10    2
     4    10    11    1
     5    11    12    2
     6    12    13    1
     7    13    14    1
     8    13    15    2
     9    15    16    1
    10    16    17    1
    11    17    18    2
    12    18     7    1
    13     7     8    2
    14     7     1    1
    15     1     2   ar
    16     2     3   ar
    17     3     4   ar
    18     4    21    1
    19    21    23    1
    20    23    24   ar
    21    24    25   ar
    22    25    26   ar
    23    26    27    1
    24    26    28   ar
    25    28    29   ar
    26    29    30    1
    27     4     5   ar
    28     5     6   ar
    29    18     9    1
    30     6     1   ar
    31    16    11    1
    32    29    23   ar
    33    21    22    1
@<TRIPOS>MOLECULE
*****
 30 33 0 0 0
SMALL
GASTEIGER

@<TRIPOS>ATOM
      1 C          63.3887   88.4015   13.1982 C.ar    1  UNL1        0.0391
      2 C          64.2414   88.1513   14.4067 C.ar    1  UNL1        0.0045
      3 C          64.6973   86.7588   14.7277 C.ar    1  UNL1        0.0147
      4 C          64.3004   85.6164   13.8402 C.ar    1  UNL1        0.0484
      5 C          63.4477   85.8665   12.6319 C.ar    1  UNL1        0.0147
      6 C          62.9918   87.2591   12.3108 C.ar    1  UNL1        0.0045
      7 C          62.9328   89.7940   12.8772 C.2     1  UNL1        0.1983
      8 O          61.4684   90.0941   12.7540 O.2     1  UNL1       -0.2865
      9 C          64.5573   91.5630   13.8680 C.2     1  UNL1        0.1451
     10 C          65.5660   92.6555   13.6701 C.2     1  UNL1        0.0838
     11 C          65.9589   93.0713   12.2835 C.2     1  UNL1        0.2267
     12 N          66.9188   94.1086   11.7809 N.2     1  UNL1       -0.0385
     13 C          66.8962   94.0730   10.2815 C.2     1  UNL1        0.3473
     14 C          67.7054   94.9438    9.3666 C.3     1  UNL1        0.1363
     15 N          65.9224   93.0138    9.8574 N.2     1  UNL1       -0.0551
     16 C          65.3431   92.3947   11.0948 C.3     1  UNL1        0.3015
     17 C          64.3344   91.3023   11.2927 C.2     1  UNL1        0.0410
     18 C          63.9415   90.8865   12.6793 C.2     1  UNL1        0.0733
     19 C          64.5195   92.0136   16.4265 C.3     1  UNL1        0.2525
     20 O          64.1643   91.1472   15.2547 O.2     1  UNL1       -0.4712
     21 N          64.7563   84.2239   14.1613 N.pl3   1  UNL1       -0.3108
     22 H          65.6702   84.0694   14.4931 H       1  UNL1        0.1523
     23 C          63.8197   83.0668   13.9768 C.ar    1  UNL1        0.0763
     24 C          64.1371   81.9976   12.9738 C.ar    1  UNL1        0.0192
     25 C          63.2004   80.8405   12.7894 C.ar    1  UNL1        0.0311
     26 C          61.9464   80.7527   13.6078 C.ar    1  UNL1        0.1425
     27 F          61.0099   79.5957   13.4233 F       1  UNL1       -0.2041
     28 C          61.6291   81.8220   14.6108 C.ar    1  UNL1        0.0605
     29 C          62.5657   82.9791   14.7952 C.ar    1  UNL1        0.1556
     30 F          62.2483   84.0483   15.7981 F       1  UNL1       -0.2028
@<TRIPOS>BOND
     1    19    20    1
     2    20     9    1
     3     9    10    2
     4    10    11    1
     5    11    12    2
     6    12    13    1
     7    13    14    1
     8    13    15    2
     9    15    16    1
    10    16    17    1
    11    17    18    2
    12    18     7    1
    13     7     8    2
    14     7     1    1
    15     1     2   ar
    16     2     3   ar
    17     3     4   ar
    18     4    21    1
    19    21    23    1
    20    23    24   ar
    21    24    25   ar
    22    25    26   ar
    23    26    27    1
    24    26    28   ar
    25    28    29   ar
    26    29    30    1
    27     4     5   ar
    28     5     6   ar
    29    18     9    1
    30     6     1   ar
    31    16    11    1
    32    29    23   ar
    33    21    22    1
@<TRIPOS>MOLECULE
*****
 30 33 0 0 0
SMALL
GASTEIGER

@<TRIPOS>ATOM
      1 C          63.6688   87.9921   13.9784 C.ar    1  UNL1        0.0391
      2 C          63.1310   87.1147   12.8870 C.ar    1  UNL1        0.0045
      3 C          63.5295   85.6701   12.8211 C.ar    1  UNL1        0.0147
      4 C          64.4658   85.1028   13.8466 C.ar    1  UNL1        0.0484
      5 C          65.0036   85.9801   14.9379 C.ar    1  UNL1        0.0147
      6 C          64.6051   87.4248   15.0038 C.ar    1  UNL1        0.0045
      7 C          63.2703   89.4367   14.0443 C.2     1  UNL1        0.1983
      8 O          62.4243   89.9302   15.1803 O.2     1  UNL1       -0.2865
      9 C          63.0360   90.3884   11.6382 C.2     1  UNL1        0.1451
     10 C          63.4837   91.3394   10.5680 C.2     1  UNL1        0.0838
     11 C          64.6133   92.2897   10.8339 C.2     1  UNL1        0.2267
     12 N          65.2687   93.3339    9.9794 N.2     1  UNL1       -0.0385
     13 C          66.3557   93.9786   10.7873 C.2     1  UNL1        0.3473
     14 C          67.2664   95.0764   10.3230 C.3     1  UNL1        0.1363
     15 N          66.3722   93.3329   12.1411 N.2     1  UNL1       -0.0551
     16 C          65.2953   92.2891   12.1699 C.3     1  UNL1        0.3015
     17 C          64.8476   91.3380   13.2400 C.2     1  UNL1        0.0410
     18 C          63.7180   90.3877   12.9741 C.2     1  UNL1        0.0733
     19 C          60.4868   89.9037   11.5074 C.3     1  UNL1        0.2525
     20 O          61.9063   89.4380   11.3723 O.2     1  UNL1       -0.4712
     21 N          64.8642   83.6583   13.7807 N.pl3   1  UNL1       -0.3108
     22 H          65.5039   83.2937   14.4343 H       1  UNL1        0.1523
     23 C          64.2882   82.7691   12.7188 C.ar    1  UNL1        0.0763
     24 C          64.6548   82.9842   11.2803 C.ar    1  UNL1        0.0192
     25 C          64.0787   82.0949   10.2185 C.ar    1  UNL1        0.0311
     26 C          63.1360   80.9906   10.5952 C.ar    1  UNL1        0.1425
     27 F          62.5600   80.1014    9.5334 F       1  UNL1       -0.2041
     28 C          62.7695   80.7755   12.0337 C.ar    1  UNL1        0.0605
     29 C          63.3456   81.6647   13.0955 C.ar    1  UNL1        0.1556
     30 F          62.9790   81.4496   14.5340 F       1  UNL1       -0.2028
@<TRIPOS>BOND
     1    19    20    1
     2    20     9    1
     3     9    10    2
     4    10    11    1
     5    11    12    2
     6    12    13    1
     7    13    14    1
     8    13    15    2
     9    15    16    1
    10    16    17    1
    11    17    18    2
    12    18     7    1
    13     7     8    2
    14     7     1    1
    15     1     2   ar
    16     2     3   ar
    17     3     4   ar
    18     4    21    1
    19    21    23    1
    20    23    24   ar
    21    24    25   ar
    22    25    26   ar
    23    26    27    1
    24    26    28   ar
    25    28    29   ar
    26    29    30    1
    27     4     5   ar
    28     5     6   ar
    29    18     9    1
    30     6     1   ar
    31    16    11    1
    32    29    23   ar
    33    21    22    1
