@<TRIPOS>MOLECULE
*****
 62 68 0 0 0
SMALL
GASTEIGER

@<TRIPOS>ATOM
      1 N          65.4275   89.2201   14.5566 N.3     1  UNL1       -0.1862
      2 C          65.6161   87.9676   15.3601 C.3     1  UNL1        0.1775
      3 C          64.8446   86.7294   15.0111 C.2     1  UNL1        0.2452
      4 O          65.0333   85.4769   15.8147 O.2     1  UNL1       -0.2732
      5 N          63.8846   86.7437   13.8587 N.am    1  UNL1       -0.2541
      6 C          63.1132   85.5055   13.5098 C.3     1  UNL1        0.1577
      7 C          62.1532   85.5198   12.3574 C.2     1  UNL1        0.2445
      8 O          61.3818   84.2816   12.0084 O.2     1  UNL1       -0.2731
      9 N          61.9646   86.7724   11.5538 N.am    1  UNL1       -0.2705
     10 C          62.7360   88.0106   11.9028 C.3     1  UNL1        0.1359
     11 C          63.6960   87.9962   13.0553 C.3     1  UNL1        0.1908
     12 N          64.4675   89.2344   13.4042 N.am    1  UNL1       -0.1863
     13 C          64.2788   90.4870   12.6007 C.2     1  UNL1        0.3191
     14 O          63.3188   90.5013   11.4482 O.2     1  UNL1       -0.2512
     15 N          65.0502   91.7252   12.9496 N.am    1  UNL1       -0.2836
     16 H          65.6803   91.7158   13.7060 H       1  UNL1        0.1513
     17 C          66.1989   90.4583   14.9056 C.3     1  UNL1        0.1188
     18 C          66.3353   92.7610   16.1010 C.2     1  UNL1       -0.0034
     19 C          65.5855   91.4981   15.7958 C.2     1  UNL1       -0.0071
     20 C          63.3018   84.2530   14.3133 C.3     1  UNL1        0.0556
     21 C          63.1210   82.9121   13.6656 C.ar    1  UNL1       -0.0198
     22 C          63.9148   82.5562   12.4438 C.ar    1  UNL1       -0.0011
     23 C          63.7340   81.2154   11.7962 C.ar    1  UNL1        0.0363
     24 C          62.7593   80.2304   12.3704 C.ar    1  UNL1        0.1337
     25 O          62.5785   78.8896   11.7228 O.3     1  UNL1       -0.5055
     26 C          61.9654   80.5863   13.5924 C.ar    1  UNL1        0.0363
     27 C          62.1462   81.9272   14.2400 C.ar    1  UNL1       -0.0011
     28 H          63.0744   78.6672   10.9595 H       1  UNL1        0.2922
     29 C          61.0045   86.7867   10.4014 C.3     1  UNL1        0.1217
     30 C          60.4647   88.0899    9.8910 C.ar    1  UNL1        0.0135
     31 C          60.3034   89.2522   10.8253 C.ar    1  UNL1       -0.0012
     32 C          59.7636   90.5553   10.3150 C.ar    1  UNL1       -0.0002
     33 C          59.3851   90.6961    8.8705 C.ar    1  UNL1        0.0016
     34 C          59.5464   89.5337    7.9362 C.ar    1  UNL1        0.0214
     35 C          59.2603   89.3755    6.4722 C.ar    1  UNL1        0.0721
     36 C          59.6233   87.9746    6.0778 C.ar    1  UNL1        0.0805
     37 N          60.1337   87.2670    7.2979 N.ar    1  UNL1       -0.3241
     38 C          60.6084   85.8454    7.3588 C.3     1  UNL1        0.1305
     39 C          60.0862   88.2306    8.4465 C.ar    1  UNL1        0.0577
     40 C          58.7082   90.4327    5.5624 C.2     1  UNL1        0.2505
     41 O          57.2424   90.7505    5.5848 O.2     1  UNL1       -0.2699
     42 N          59.6218   91.1719    4.6303 N.am    1  UNL1       -0.2759
     43 C          59.0697   92.2290    3.7206 C.3     1  UNL1        0.0954
     44 C          59.9834   92.9682    2.7885 C.3     1  UNL1        0.0411
     45 C          61.4491   92.6503    2.7661 C.3     1  UNL1        0.0750
     46 C          62.0012   91.5932    3.6759 C.3     1  UNL1        0.0411
     47 C          61.0876   90.8539    4.6080 C.3     1  UNL1        0.0954
     48 N          62.3627   93.3896    1.8340 N.am    1  UNL1       -0.3058
     49 C          62.2668   93.1639    0.3542 C.2     1  UNL1        0.2250
     50 O          61.2573   92.1991   -0.1936 O.2     1  UNL1       -0.2750
     51 H          63.0253   94.0228    2.1934 H       1  UNL1        0.1494
     52 C          63.1805   93.9031   -0.5780 C.3     1  UNL1        0.1167
     53 C          64.5962   94.1874   -0.1719 C.3     1  UNL1        0.1467
     54 O          65.3367   93.2151    0.6977 O.3     1  UNL1       -0.3815
     55 H          64.9203   93.1821    1.5731 H       1  UNL1        0.2105
     56 C          64.8616   92.9777   12.1461 C.3     1  UNL1        0.1177
     57 C          65.9113   93.4030   11.1627 C.ar    1  UNL1       -0.0025
     58 C          66.8725   92.3938   10.6081 C.ar    1  UNL1       -0.0026
     59 C          67.9222   92.8192    9.6247 C.ar    1  UNL1       -0.0003
     60 C          68.0107   94.2538    9.1957 C.ar    1  UNL1       -0.0000
     61 C          67.0495   95.2631    9.7502 C.ar    1  UNL1       -0.0003
     62 C          65.9998   94.8377   10.7337 C.ar    1  UNL1       -0.0026
@<TRIPOS>BOND
     1    18    19    2
     2    19    17    1
     3    17     1    1
     4     1     2    1
     5     2     3    1
     6     3     4    2
     7     3     5   am
     8     5     6    1
     9     6    20    1
    10    20    21    1
    11    21    22   ar
    12    22    23   ar
    13    23    24   ar
    14    24    25    1
    15    24    26   ar
    16    26    27   ar
    17     6     7    1
    18     7     8    2
    19     7     9   am
    20     9    29    1
    21    29    30    1
    22    30    31   ar
    23    31    32   ar
    24    32    33   ar
    25    33    34   ar
    26    34    35   ar
    27    35    40    1
    28    40    41    2
    29    40    42   am
    30    42    43    1
    31    43    44    1
    32    44    45    1
    33    45    48    1
    34    48    49   am
    35    49    50    2
    36    49    52    1
    37    52    53    1
    38    53    54    1
    39    45    46    1
    40    46    47    1
    41    35    36   ar
    42    36    37   ar
    43    37    38    1
    44    37    39   ar
    45     9    10    1
    46    11    10    1
    47    11    12    1
    48    12    13   am
    49    13    14    2
    50    13    15   am
    51    15    56    1
    52    56    57    1
    53    57    58   ar
    54    58    59   ar
    55    59    60   ar
    56    60    61   ar
    57    61    62   ar
    58    12     1    1
    59    62    57   ar
    60    11     5    1
    61    27    21   ar
    62    39    30   ar
    63    39    34   ar
    64    47    42    1
    65    25    28    1
    66    48    51    1
    67    54    55    1
    68    15    16    1
