@<TRIPOS>MOLECULE
*****
 36 41 0 0 0
SMALL
GASTEIGER

@<TRIPOS>ATOM
      1 C          64.5370   90.6256   13.8427 C.ar    1  UNL1        0.1020
      2 C          64.2126   90.6835   12.3793 C.ar    1  UNL1        0.1007
      3 N          64.8670   91.9062   11.8075 N.ar    1  UNL1       -0.2240
      4 C          65.5957   92.6040   12.9175 C.ar    1  UNL1        0.1772
      5 C          66.4186   93.8577   12.9454 C.ar    1  UNL1        0.0859
      6 C          67.0376   94.3201   14.2311 C.ar    1  UNL1        0.0401
      7 C          66.8337   93.5287   15.4889 C.ar    1  UNL1        0.1219
      8 N          66.0107   92.2749   15.4610 N.ar    1  UNL1       -0.1621
      9 N          65.3917   91.8125   14.1753 N.ar    1  UNL1       -0.2095
     10 C          63.1833   87.4491   16.7284 C.ar    1  UNL1        0.0140
     11 C          63.8981   87.0617   15.4678 C.ar    1  UNL1        0.0012
     12 C          64.3493   88.1206   14.5059 C.ar    1  UNL1        0.0016
     13 C          64.0858   89.5668   14.8045 C.ar    1  UNL1        0.0192
     14 C          63.3711   89.9541   16.0652 C.ar    1  UNL1        0.0016
     15 C          62.9199   88.8952   17.0271 C.ar    1  UNL1        0.0012
     16 O          62.3877   85.0191   17.1889 O.co2   1  UNL1       -0.5446
     17 C          62.7321   86.3902   17.6903 C.2     1  UNL1        0.0729
     18 O          62.6254   86.7025   19.1536 O.co2   1  UNL1       -0.5446
     19 N          66.6225   94.6491   11.6876 N.pl3   1  UNL1       -0.3003
     20 C          66.1315   96.0640   11.6038 C.3     1  UNL1        0.1231
     21 C          66.3355   96.8554   10.3460 C.3     1  UNL1        0.1636
     22 O          67.0304   96.2319    9.1720 O.3     1  UNL1       -0.3501
     23 C          67.5215   94.8171    9.2558 C.3     1  UNL1        0.1636
     24 C          67.3175   94.0257   10.5136 C.3     1  UNL1        0.1231
     25 C          63.3802   89.6927   11.6209 C.2     1  UNL1        0.0222
     26 C          62.6002   90.1335   10.4179 C.2     1  UNL1        0.0207
     27 C          61.7677   89.1427    9.6594 C.ar    1  UNL1        0.0813
     28 C          60.3174   89.4245    9.3999 C.ar    1  UNL1        0.0191
     29 C          59.4849   88.4337    8.6415 C.ar    1  UNL1        0.0030
     30 C          60.1026   87.1611    8.1425 C.ar    1  UNL1        0.0177
     31 C          59.2701   86.1703    7.3841 C.ar    1  UNL1        0.0015
     32 C          59.8878   84.8978    6.8851 C.ar    1  UNL1        0.0001
     33 C          61.3381   84.6160    7.1446 C.ar    1  UNL1        0.0015
     34 C          62.1706   85.6067    7.9030 C.ar    1  UNL1        0.0191
     35 C          61.5529   86.8793    8.4020 C.ar    1  UNL1        0.0812
     36 N          62.3854   87.8701    9.1605 N.ar    1  UNL1       -0.2454
@<TRIPOS>UNITY_ATOM_ATTR
16 1
charge -1
@<TRIPOS>BOND
     1    16    17   ar
     2    17    18   ar
     3    17    10    1
     4    10    11   ar
     5    11    12   ar
     6    12    13   ar
     7    13     1    1
     8     1     2   ar
     9     2    25    1
    10    25    26    2
    11    26    27    1
    12    27    28   ar
    13    28    29   ar
    14    29    30   ar
    15    30    31   ar
    16    31    32   ar
    17    32    33   ar
    18    33    34   ar
    19    34    35   ar
    20    35    36   ar
    21     2     3   ar
    22     3     4   ar
    23     4     5   ar
    24     5    19    1
    25    19    20    1
    26    20    21    1
    27    21    22    1
    28    22    23    1
    29    23    24    1
    30     5     6   ar
    31     6     7   ar
    32     7     8   ar
    33     8     9   ar
    34    13    14   ar
    35    14    15   ar
    36    15    10   ar
    37     9     1   ar
    38    36    27   ar
    39     9     4   ar
    40    35    30   ar
    41    24    19    1
@<TRIPOS>MOLECULE
*****
 36 41 0 0 0
SMALL
GASTEIGER

@<TRIPOS>ATOM
      1 C          63.2596   89.8761   11.6023 C.ar    1  UNL1        0.1020
      2 C          63.7016   89.1234   12.8221 C.ar    1  UNL1        0.1007
      3 N          64.7418   89.9462   13.5229 N.ar    1  UNL1       -0.2240
      4 C          64.9427   91.2074   12.7361 C.ar    1  UNL1        0.1772
      5 C          65.8414   92.3896   12.9472 C.ar    1  UNL1        0.0859
      6 C          65.8240   93.5286   11.9713 C.ar    1  UNL1        0.0401
      7 C          64.9079   93.4854   10.7843 C.ar    1  UNL1        0.1219
      8 N          64.0092   92.3030   10.5732 N.ar    1  UNL1       -0.1621
      9 N          64.0266   91.1641   11.5491 N.ar    1  UNL1       -0.2095
     10 C          60.1740   88.5103    8.6250 C.ar    1  UNL1        0.0140
     11 C          61.3555   87.6392    8.9337 C.ar    1  UNL1        0.0012
     12 C          62.3840   88.0945    9.9261 C.ar    1  UNL1        0.0016
     13 C          62.2311   89.4208   10.6099 C.ar    1  UNL1        0.0192
     14 C          61.0496   90.2919   10.3011 C.ar    1  UNL1        0.0016
     15 C          60.0211   89.8366    9.3087 C.ar    1  UNL1        0.0012
     16 O          58.7563   88.9487    6.4924 O.co2   1  UNL1       -0.5446
     17 C          59.1455   88.0551    7.6326 C.2     1  UNL1        0.0729
     18 O          58.5063   86.7061    7.7803 O.co2   1  UNL1       -0.5446
     19 N          66.7574   92.4329   14.1341 N.pl3   1  UNL1       -0.3003
     20 C          68.2369   92.2727   13.9459 C.3     1  UNL1        0.1231
     21 C          69.1530   92.3159   15.1330 C.3     1  UNL1        0.1636
     22 O          68.5896   92.5195   16.5081 O.3     1  UNL1       -0.3501
     23 C          67.1101   92.6797   16.6963 C.3     1  UNL1        0.1636
     24 C          66.1940   92.6364   15.5094 C.3     1  UNL1        0.1231
     25 C          63.1928   87.7832   13.2637 C.2     1  UNL1        0.0222
     26 C          63.8522   86.5303   12.7685 C.2     1  UNL1        0.0207
     27 C          63.3434   85.1900   13.2101 C.ar    1  UNL1        0.0813
     28 C          62.7439   85.0281   14.5755 C.ar    1  UNL1        0.0191
     29 C          62.2351   83.6879   15.0171 C.ar    1  UNL1        0.0030
     30 C          62.3258   82.5096   14.0932 C.ar    1  UNL1        0.0177
     31 C          61.8170   81.1695   14.5348 C.ar    1  UNL1        0.0015
     32 C          61.9077   79.9913   13.6109 C.ar    1  UNL1        0.0001
     33 C          62.5072   80.1532   12.2455 C.ar    1  UNL1        0.0015
     34 C          63.0160   81.4934   11.8039 C.ar    1  UNL1        0.0191
     35 C          62.9253   82.6716   12.7278 C.ar    1  UNL1        0.0812
     36 N          63.4341   84.0118   12.2862 N.ar    1  UNL1       -0.2454
@<TRIPOS>UNITY_ATOM_ATTR
16 1
charge -1
@<TRIPOS>BOND
     1    16    17   ar
     2    17    18   ar
     3    17    10    1
     4    10    11   ar
     5    11    12   ar
     6    12    13   ar
     7    13     1    1
     8     1     2   ar
     9     2    25    1
    10    25    26    2
    11    26    27    1
    12    27    28   ar
    13    28    29   ar
    14    29    30   ar
    15    30    31   ar
    16    31    32   ar
    17    32    33   ar
    18    33    34   ar
    19    34    35   ar
    20    35    36   ar
    21     2     3   ar
    22     3     4   ar
    23     4     5   ar
    24     5    19    1
    25    19    20    1
    26    20    21    1
    27    21    22    1
    28    22    23    1
    29    23    24    1
    30     5     6   ar
    31     6     7   ar
    32     7     8   ar
    33     8     9   ar
    34    13    14   ar
    35    14    15   ar
    36    15    10   ar
    37     9     1   ar
    38    36    27   ar
    39     9     4   ar
    40    35    30   ar
    41    24    19    1
@<TRIPOS>MOLECULE
*****
 36 41 0 0 0
SMALL
GASTEIGER

@<TRIPOS>ATOM
      1 C          61.5675   88.1596   10.1807 C.ar    1  UNL1        0.1020
      2 C          61.7449   89.6425   10.0413 C.ar    1  UNL1        0.1007
      3 N          60.9702   90.0909    8.8376 N.ar    1  UNL1       -0.2240
      4 C          60.3140   88.8851    8.2331 C.ar    1  UNL1        0.1772
      5 C          59.4281   88.7198    7.0340 C.ar    1  UNL1        0.0859
      6 C          58.9113   87.3608    6.6650 C.ar    1  UNL1        0.0401
      7 C          59.2804   86.1672    7.4950 C.ar    1  UNL1        0.1219
      8 N          60.1663   86.3325    8.6942 N.ar    1  UNL1       -0.1621
      9 N          60.6832   87.6914    9.0632 N.ar    1  UNL1       -0.2095
     10 C          63.3714   85.5695   13.3882 C.ar    1  UNL1        0.0140
     11 C          63.6469   87.0440   13.3716 C.ar    1  UNL1        0.0012
     12 C          63.0456   87.9073   12.3024 C.ar    1  UNL1        0.0016
     13 C          62.1688   87.2963   11.2499 C.ar    1  UNL1        0.0192
     14 C          61.8933   85.8219   11.2665 C.ar    1  UNL1        0.0016
     15 C          62.4946   84.9586   12.3357 C.ar    1  UNL1        0.0012
     16 O          64.2742   85.2856   15.8077 O.co2   1  UNL1       -0.5446
     17 C          63.9727   84.7063   14.4574 C.2     1  UNL1        0.0729
     18 O          64.2724   83.2636   14.1762 O.co2   1  UNL1       -0.5446
     19 N          59.0590   89.9134    6.2040 N.pl3   1  UNL1       -0.3003
     20 C          60.1332   90.7543    5.5802 C.3     1  UNL1        0.1231
     21 C          59.7640   91.9480    4.7501 C.3     1  UNL1        0.1636
     22 O          58.3207   92.3007    4.5439 O.3     1  UNL1       -0.3501
     23 C          57.2466   91.4598    5.1677 C.3     1  UNL1        0.1636
     24 C          57.6157   90.2662    5.9977 C.3     1  UNL1        0.1231
     25 C          62.5548   90.5225   10.9466 C.2     1  UNL1        0.0222
     26 C          63.9637   90.8826   10.5788 C.2     1  UNL1        0.0207
     27 C          64.7736   91.7626   11.4841 C.ar    1  UNL1        0.0813
     28 C          65.2088   93.1202   11.0177 C.ar    1  UNL1        0.0191
     29 C          66.0187   94.0003   11.9230 C.ar    1  UNL1        0.0030
     30 C          66.3935   93.5227   13.2947 C.ar    1  UNL1        0.0177
     31 C          67.2035   94.4027   14.2000 C.ar    1  UNL1        0.0015
     32 C          67.5782   93.9251   15.5716 C.ar    1  UNL1        0.0001
     33 C          67.1431   92.5675   16.0380 C.ar    1  UNL1        0.0015
     34 C          66.3331   91.6875   15.1327 C.ar    1  UNL1        0.0191
     35 C          65.9584   92.1651   13.7611 C.ar    1  UNL1        0.0812
     36 N          65.1484   91.2850   12.8557 N.ar    1  UNL1       -0.2454
@<TRIPOS>UNITY_ATOM_ATTR
16 1
charge -1
@<TRIPOS>BOND
     1    16    17   ar
     2    17    18   ar
     3    17    10    1
     4    10    11   ar
     5    11    12   ar
     6    12    13   ar
     7    13     1    1
     8     1     2   ar
     9     2    25    1
    10    25    26    2
    11    26    27    1
    12    27    28   ar
    13    28    29   ar
    14    29    30   ar
    15    30    31   ar
    16    31    32   ar
    17    32    33   ar
    18    33    34   ar
    19    34    35   ar
    20    35    36   ar
    21     2     3   ar
    22     3     4   ar
    23     4     5   ar
    24     5    19    1
    25    19    20    1
    26    20    21    1
    27    21    22    1
    28    22    23    1
    29    23    24    1
    30     5     6   ar
    31     6     7   ar
    32     7     8   ar
    33     8     9   ar
    34    13    14   ar
    35    14    15   ar
    36    15    10   ar
    37     9     1   ar
    38    36    27   ar
    39     9     4   ar
    40    35    30   ar
    41    24    19    1
