@<TRIPOS>MOLECULE
*****
 51 55 0 0 0
SMALL
GASTEIGER

@<TRIPOS>ATOM
      1 N          59.5660   88.4444    7.9119 N.am    1  UNL1       -0.2724
      2 C          60.3163   88.8394    9.1492 C.2     1  UNL1        0.2491
      3 O          60.1535   90.2181    9.7172 O.2     1  UNL1       -0.2727
      4 C          58.6528   89.4282    7.2425 C.3     1  UNL1        0.1202
      5 C          59.1604   90.2740    6.1124 C.ar    1  UNL1       -0.0023
      6 C          58.2201   91.1766    5.3700 C.ar    1  UNL1       -0.0026
      7 C          58.7278   92.0223    4.2400 C.ar    1  UNL1       -0.0003
      8 C          60.1757   91.9654    3.8523 C.ar    1  UNL1       -0.0000
      9 C          61.1160   91.0628    4.5947 C.ar    1  UNL1       -0.0003
     10 C          60.6083   90.2171    5.7247 C.ar    1  UNL1       -0.0026
     11 C          60.6833   92.8112    2.7222 C.ar    1  UNL1       -0.0000
     12 C          62.1480   92.8309    2.3993 C.ar    1  UNL1       -0.0001
     13 C          62.6556   93.6766    1.2692 C.ar    1  UNL1        0.0039
     14 C          61.6985   94.5028    0.4621 C.ar    1  UNL1        0.0714
     15 C          60.2338   94.4831    0.7850 C.ar    1  UNL1        0.0039
     16 C          59.7262   93.6373    1.9151 C.ar    1  UNL1       -0.0001
     17 C          62.2060   95.3485   -0.6680 C.3     1  UNL1        0.4186
     18 F          62.7136   96.1943   -1.7980 F       1  UNL1       -0.1659
     19 F          61.2033   96.4097   -0.3241 F       1  UNL1       -0.1659
     20 F          63.2088   94.2873   -1.0118 F       1  UNL1       -0.1659
     21 C          59.7289   87.0656    7.3440 C.3     1  UNL1        0.1111
     22 C          60.5132   86.0323    8.0968 C.3     1  UNL1        0.0939
     23 N          61.6258   85.2919    7.4156 N.3     1  UNL1       -0.2712
     24 C          63.5435   84.2275    8.8083 C.3     1  UNL1        0.0188
     25 C          63.0183   85.3548    7.9698 C.3     1  UNL1        0.0722
     26 C          61.3459   84.4884    6.1803 C.3     1  UNL1        0.0722
     27 C          62.4448   84.2202    5.1951 C.3     1  UNL1        0.0188
     28 C          61.2296   87.8555    9.8187 C.3     1  UNL1        0.1934
     29 N          62.1060   88.2973   10.9530 N.ar    1  UNL1       -0.2979
     30 C          62.4529   89.7480   11.1117 C.ar    1  UNL1        0.0786
     31 C          63.3293   90.1899   12.2460 C.ar    1  UNL1        0.0574
     32 C          63.8588   89.1810   13.2217 C.ar    1  UNL1        0.2786
     33 O          64.7352   89.6228   14.3560 O.2     1  UNL1       -0.2654
     34 N          63.5118   87.7303   13.0630 N.ar    1  UNL1       -0.1847
     35 C          62.6354   87.2885   11.9287 C.ar    1  UNL1        0.1750
     36 C          63.6763   91.6405   12.4047 C.3     1  UNL1        0.0622
     37 C          65.0207   92.1423   11.9678 C.ar    1  UNL1        0.0220
     38 C          66.2096   92.3650   12.8549 C.ar    1  UNL1        0.1177
     39 N          67.3359   92.8698   12.0025 N.ar    1  UNL1       -0.1679
     40 N          66.8431   92.9591   10.5885 N.ar    1  UNL1       -0.2477
     41 C          67.6410   93.4175    9.4039 C.3     1  UNL1        0.1537
     42 C          65.4122   92.5094   10.5671 C.ar    1  UNL1        0.0927
     43 S          62.2885   85.8379   11.7700 S.3     1  UNL1       -0.0724
     44 C          63.3207   84.7852   12.0467 C.3     1  UNL1        0.0913
     45 C          62.8964   83.4189   12.4975 C.ar    1  UNL1       -0.0108
     46 C          62.2807   83.2339   13.8527 C.ar    1  UNL1       -0.0011
     47 C          61.8564   81.8675   14.3035 C.ar    1  UNL1        0.0293
     48 C          62.0477   80.6863   13.3990 C.ar    1  UNL1        0.1401
     49 F          61.6234   79.3200   13.8498 F       1  UNL1       -0.2042
     50 C          62.6634   80.8714   12.0437 C.ar    1  UNL1        0.0293
     51 C          63.0877   82.2377   11.5930 C.ar    1  UNL1       -0.0011
@<TRIPOS>BOND
     1    24    25    1
     2    25    23    1
     3    23    26    1
     4    26    27    1
     5    23    22    1
     6    22    21    1
     7    21     1    1
     8     1     4    1
     9     4     5    1
    10     5     6   ar
    11     6     7   ar
    12     7     8   ar
    13     8    11    1
    14    11    12   ar
    15    12    13   ar
    16    13    14   ar
    17    14    17    1
    18    17    18    1
    19    17    19    1
    20    17    20    1
    21    14    15   ar
    22    15    16   ar
    23     8     9   ar
    24     9    10   ar
    25     1     2   am
    26     2     3    2
    27     2    28    1
    28    28    29    1
    29    29    30   ar
    30    30    31   ar
    31    31    36    1
    32    36    37    1
    33    37    38   ar
    34    38    39   ar
    35    39    40   ar
    36    40    41    1
    37    40    42   ar
    38    31    32   ar
    39    32    33    2
    40    32    34   ar
    41    34    35   ar
    42    35    43    1
    43    43    44    1
    44    44    45    1
    45    45    46   ar
    46    46    47   ar
    47    47    48   ar
    48    48    49    1
    49    48    50   ar
    50    50    51   ar
    51    10     5   ar
    52    35    29   ar
    53    51    45   ar
    54    16    11   ar
    55    42    37   ar
@<TRIPOS>MOLECULE
*****
 51 55 0 0 0
SMALL
GASTEIGER

@<TRIPOS>ATOM
      1 N          61.8288   87.2946   11.7105 N.am    1  UNL1       -0.2724
      2 C          62.2484   88.4792   12.5293 C.2     1  UNL1        0.2491
      3 O          61.3593   89.6842   12.6156 O.2     1  UNL1       -0.2727
      4 C          60.5200   87.3149   10.9779 C.3     1  UNL1        0.1202
      5 C          60.3723   88.1322    9.7288 C.ar    1  UNL1       -0.0023
      6 C          61.1033   89.4350    9.5941 C.ar    1  UNL1       -0.0026
      7 C          60.9555   90.2523    8.3450 C.ar    1  UNL1       -0.0003
      8 C          60.0768   89.7667    7.2306 C.ar    1  UNL1       -0.0000
      9 C          59.3458   88.4638    7.3653 C.ar    1  UNL1       -0.0003
     10 C          59.4935   87.6466    8.6143 C.ar    1  UNL1       -0.0026
     11 C          59.9290   90.5840    5.9815 C.ar    1  UNL1       -0.0000
     12 C          58.5705   91.0442    5.5426 C.ar    1  UNL1       -0.0001
     13 C          58.4228   91.8615    4.2935 C.ar    1  UNL1        0.0039
     14 C          59.6336   92.2186    3.4833 C.ar    1  UNL1        0.0714
     15 C          60.9922   91.7584    3.9222 C.ar    1  UNL1        0.0039
     16 C          61.1399   90.9411    5.1713 C.ar    1  UNL1       -0.0001
     17 C          59.4860   93.0359    2.2342 C.3     1  UNL1        0.4186
     18 F          59.3383   93.8531    0.9852 F       1  UNL1       -0.1659
     19 F          58.2462   92.2697    1.8795 F       1  UNL1       -0.1659
     20 F          60.7257   93.8020    2.5890 F       1  UNL1       -0.1659
     21 C          62.7179   86.0895   11.6242 C.3     1  UNL1        0.1111
     22 C          62.3213   84.9246   10.7666 C.3     1  UNL1        0.0939
     23 N          63.1994   84.4985    9.6276 N.3     1  UNL1       -0.2712
     24 C          61.9083   85.2646    7.5072 C.3     1  UNL1        0.0188
     25 C          63.1624   85.2502    8.3300 C.3     1  UNL1        0.0722
     26 C          64.1147   83.3207    9.7862 C.3     1  UNL1        0.0722
     27 C          63.7264   82.1850   10.6859 C.3     1  UNL1        0.0188
     28 C          63.5572   88.4588   13.2619 C.3     1  UNL1        0.1934
     29 N          63.8932   89.5561   14.2279 N.ar    1  UNL1       -0.2979
     30 C          64.7503   90.7060   13.7883 C.ar    1  UNL1        0.0786
     31 C          65.0863   91.8033   14.7542 C.ar    1  UNL1        0.0574
     32 C          64.5650   91.7507   16.1598 C.ar    1  UNL1        0.2786
     33 O          64.9010   92.8480   17.1258 O.2     1  UNL1       -0.2654
     34 N          63.7079   90.6009   16.5994 N.ar    1  UNL1       -0.1847
     35 C          63.3720   89.5036   15.6334 C.ar    1  UNL1        0.1750
     36 C          65.9434   92.9531   14.3147 C.3     1  UNL1        0.0622
     37 C          66.5601   92.9491   12.9473 C.ar    1  UNL1        0.0220
     38 C          67.6738   92.0570   12.4850 C.ar    1  UNL1        0.1177
     39 N          67.9733   92.3931   11.0541 N.ar    1  UNL1       -0.1679
     40 N          67.0447   93.4929   10.6321 N.ar    1  UNL1       -0.2477
     41 C          66.9977   94.1361    9.2778 C.3     1  UNL1        0.1537
     42 C          66.1712   93.8365   11.8021 C.ar    1  UNL1        0.0927
     43 S          62.5148   88.3538   16.0729 S.3     1  UNL1       -0.0724
     44 C          63.1334   87.1850   16.7810 C.3     1  UNL1        0.0913
     45 C          63.4008   85.9117   16.0346 C.ar    1  UNL1       -0.0108
     46 C          64.6408   85.7772   15.2014 C.ar    1  UNL1       -0.0011
     47 C          64.9083   84.5039   14.4548 C.ar    1  UNL1        0.0293
     48 C          63.9357   83.3652   14.5415 C.ar    1  UNL1        0.1401
     49 F          64.2031   82.0920   13.7950 F       1  UNL1       -0.2042
     50 C          62.6956   83.4998   15.3748 C.ar    1  UNL1        0.0293
     51 C          62.4282   84.7730   16.1213 C.ar    1  UNL1       -0.0011
@<TRIPOS>BOND
     1    24    25    1
     2    25    23    1
     3    23    26    1
     4    26    27    1
     5    23    22    1
     6    22    21    1
     7    21     1    1
     8     1     4    1
     9     4     5    1
    10     5     6   ar
    11     6     7   ar
    12     7     8   ar
    13     8    11    1
    14    11    12   ar
    15    12    13   ar
    16    13    14   ar
    17    14    17    1
    18    17    18    1
    19    17    19    1
    20    17    20    1
    21    14    15   ar
    22    15    16   ar
    23     8     9   ar
    24     9    10   ar
    25     1     2   am
    26     2     3    2
    27     2    28    1
    28    28    29    1
    29    29    30   ar
    30    30    31   ar
    31    31    36    1
    32    36    37    1
    33    37    38   ar
    34    38    39   ar
    35    39    40   ar
    36    40    41    1
    37    40    42   ar
    38    31    32   ar
    39    32    33    2
    40    32    34   ar
    41    34    35   ar
    42    35    43    1
    43    43    44    1
    44    44    45    1
    45    45    46   ar
    46    46    47   ar
    47    47    48   ar
    48    48    49    1
    49    48    50   ar
    50    50    51   ar
    51    10     5   ar
    52    35    29   ar
    53    51    45   ar
    54    16    11   ar
    55    42    37   ar
@<TRIPOS>MOLECULE
*****
 51 55 0 0 0
SMALL
GASTEIGER

@<TRIPOS>ATOM
      1 N          61.0199   87.2535   10.8261 N.am    1  UNL1       -0.2724
      2 C          61.3437   88.1987   11.9450 C.2     1  UNL1        0.2491
      3 O          60.4236   89.3434   12.2498 O.2     1  UNL1       -0.2727
      4 C          59.7759   87.4531   10.0121 C.3     1  UNL1        0.1202
      5 C          59.8057   88.3386    8.8017 C.ar    1  UNL1       -0.0023
      6 C          59.1457   87.8934    7.5304 C.ar    1  UNL1       -0.0026
      7 C          59.1754   88.7789    6.3200 C.ar    1  UNL1       -0.0003
      8 C          59.8652   90.1095    6.3810 C.ar    1  UNL1       -0.0000
      9 C          60.5252   90.5547    7.6523 C.ar    1  UNL1       -0.0003
     10 C          60.4954   89.6692    8.8626 C.ar    1  UNL1       -0.0026
     11 C          59.8950   90.9950    5.1706 C.ar    1  UNL1       -0.0000
     12 C          58.6237   91.5983    4.6512 C.ar    1  UNL1       -0.0001
     13 C          58.6534   92.4838    3.4408 C.ar    1  UNL1        0.0039
     14 C          59.9545   92.7660    2.7497 C.ar    1  UNL1        0.0714
     15 C          61.2259   92.1626    3.2692 C.ar    1  UNL1        0.0039
     16 C          61.1961   91.2772    4.4795 C.ar    1  UNL1       -0.0001
     17 C          59.9843   93.6514    1.5394 C.3     1  UNL1        0.4186
     18 F          60.0141   94.5369    0.3290 F       1  UNL1       -0.1659
     19 F          58.7455   92.9837    1.0204 F       1  UNL1       -0.1659
     20 F          61.2232   94.3191    2.0583 F       1  UNL1       -0.1659
     21 C          61.9401   86.1087   10.5214 C.3     1  UNL1        0.1111
     22 C          62.7609   86.1200    9.2660 C.3     1  UNL1        0.0939
     23 N          62.6720   84.9748    8.3014 N.3     1  UNL1       -0.2712
     24 C          62.1675   84.1701    5.8832 C.3     1  UNL1        0.0188
     25 C          61.9425   85.1439    7.0016 C.3     1  UNL1        0.0722
     26 C          63.3124   83.6605    8.6365 C.3     1  UNL1        0.0722
     27 C          64.1057   83.5135    9.9012 C.3     1  UNL1        0.0188
     28 C          62.5877   87.9991   12.7590 C.3     1  UNL1        0.1934
     29 N          63.4800   89.1658   13.0636 N.ar    1  UNL1       -0.2979
     30 C          63.5229   90.3404   12.1317 C.ar    1  UNL1        0.0786
     31 C          64.4151   91.5071   12.4363 C.ar    1  UNL1        0.0574
     32 C          65.2644   91.4992   13.6727 C.ar    1  UNL1        0.2786
     33 O          66.1566   92.6659   13.9773 O.2     1  UNL1       -0.2654
     34 N          65.2214   90.3245   14.6046 N.ar    1  UNL1       -0.1847
     35 C          64.3292   89.1578   14.3000 C.ar    1  UNL1        0.1750
     36 C          64.4581   92.6818   11.5044 C.3     1  UNL1        0.0622
     37 C          65.7607   93.1083   10.8948 C.ar    1  UNL1        0.0220
     38 C          66.2818   94.5129   10.8214 C.ar    1  UNL1        0.1177
     39 N          67.6139   94.4777   10.1329 N.ar    1  UNL1       -0.1679
     40 N          67.9162   93.0513    9.7807 N.ar    1  UNL1       -0.2477
     41 C          69.1476   92.5579    9.0806 C.3     1  UNL1        0.1537
     42 C          66.7708   92.2049   10.2517 C.ar    1  UNL1        0.0927
     43 S          64.2862   87.9832   15.2318 S.3     1  UNL1       -0.0724
     44 C          64.9811   86.7064   14.8617 C.3     1  UNL1        0.0913
     45 C          64.2030   85.4271   14.7743 C.ar    1  UNL1       -0.0108
     46 C          63.1174   85.1401   15.7688 C.ar    1  UNL1       -0.0011
     47 C          62.3391   83.8607   15.6815 C.ar    1  UNL1        0.0293
     48 C          62.6466   82.8683   14.5995 C.ar    1  UNL1        0.1401
     49 F          61.8684   81.5890   14.5121 F       1  UNL1       -0.2042
     50 C          63.7322   83.1553   13.6049 C.ar    1  UNL1        0.0293
     51 C          64.5104   84.4347   13.6924 C.ar    1  UNL1       -0.0011
@<TRIPOS>BOND
     1    24    25    1
     2    25    23    1
     3    23    26    1
     4    26    27    1
     5    23    22    1
     6    22    21    1
     7    21     1    1
     8     1     4    1
     9     4     5    1
    10     5     6   ar
    11     6     7   ar
    12     7     8   ar
    13     8    11    1
    14    11    12   ar
    15    12    13   ar
    16    13    14   ar
    17    14    17    1
    18    17    18    1
    19    17    19    1
    20    17    20    1
    21    14    15   ar
    22    15    16   ar
    23     8     9   ar
    24     9    10   ar
    25     1     2   am
    26     2     3    2
    27     2    28    1
    28    28    29    1
    29    29    30   ar
    30    30    31   ar
    31    31    36    1
    32    36    37    1
    33    37    38   ar
    34    38    39   ar
    35    39    40   ar
    36    40    41    1
    37    40    42   ar
    38    31    32   ar
    39    32    33    2
    40    32    34   ar
    41    34    35   ar
    42    35    43    1
    43    43    44    1
    44    44    45    1
    45    45    46   ar
    46    46    47   ar
    47    47    48   ar
    48    48    49    1
    49    48    50   ar
    50    50    51   ar
    51    10     5   ar
    52    35    29   ar
    53    51    45   ar
    54    16    11   ar
    55    42    37   ar
@<TRIPOS>MOLECULE
*****
 51 55 0 0 0
SMALL
GASTEIGER

@<TRIPOS>ATOM
      1 N          59.3685   88.3286    7.9305 N.am    1  UNL1       -0.2724
      2 C          60.3456   88.8074    8.9629 C.2     1  UNL1        0.2491
      3 O          60.4427   90.2697    9.2826 O.2     1  UNL1       -0.2727
      4 C          58.4884   89.3121    7.2177 C.3     1  UNL1        0.1202
      5 C          59.0534   90.1684    6.1233 C.ar    1  UNL1       -0.0023
      6 C          58.1603   91.1099    5.3710 C.ar    1  UNL1       -0.0026
      7 C          58.7253   91.9662    4.2766 C.ar    1  UNL1       -0.0003
      8 C          60.1833   91.8809    3.9346 C.ar    1  UNL1       -0.0000
      9 C          61.0763   90.9394    4.6870 C.ar    1  UNL1       -0.0003
     10 C          60.5114   90.0832    5.7813 C.ar    1  UNL1       -0.0026
     11 C          60.7483   92.7372    2.8402 C.ar    1  UNL1       -0.0000
     12 C          62.2135   92.6802    2.5240 C.ar    1  UNL1       -0.0001
     13 C          62.7784   93.5365    1.4296 C.ar    1  UNL1        0.0039
     14 C          61.8782   94.4497    0.6515 C.ar    1  UNL1        0.0714
     15 C          60.4129   94.5067    0.9677 C.ar    1  UNL1        0.0039
     16 C          59.8480   93.6504    2.0621 C.ar    1  UNL1       -0.0001
     17 C          62.4431   95.3060   -0.4429 C.3     1  UNL1        0.4186
     18 F          63.0080   96.1623   -1.5372 F       1  UNL1       -0.1659
     19 F          61.2915   94.9334   -1.3288 F       1  UNL1       -0.1659
     20 F          63.5947   95.6786    0.4431 F       1  UNL1       -0.1659
     21 C          59.2714   86.8662    7.6108 C.3     1  UNL1        0.1111
     22 C          60.1648   86.2660    6.5660 C.3     1  UNL1        0.0939
     23 N          61.1781   85.2294    6.9514 N.3     1  UNL1       -0.2712
     24 C          63.3925   85.0337    8.2961 C.3     1  UNL1        0.0188
     25 C          61.9290   85.3583    8.2435 C.3     1  UNL1        0.0722
     26 C          61.4406   84.0637    6.0446 C.3     1  UNL1        0.0722
     27 C          62.0456   84.2882    4.6904 C.3     1  UNL1        0.0188
     28 C          61.2257   87.8238    9.6757 C.3     1  UNL1        0.1934
     29 N          62.0929   88.2792   10.8118 N.ar    1  UNL1       -0.2979
     30 C          62.4183   89.7350   10.9701 C.ar    1  UNL1        0.0786
     31 C          63.2854   90.1904   12.1061 C.ar    1  UNL1        0.0574
     32 C          63.8273   89.1901   13.0839 C.ar    1  UNL1        0.2786
     33 O          64.6944   89.6455   14.2199 O.2     1  UNL1       -0.2654
     34 N          63.5019   87.7344   12.9255 N.ar    1  UNL1       -0.1847
     35 C          62.6347   87.2790   11.7895 C.ar    1  UNL1        0.1750
     36 C          63.6108   91.6461   12.2645 C.3     1  UNL1        0.0622
     37 C          64.9663   92.1582   11.8764 C.ar    1  UNL1        0.0220
     38 C          66.1403   92.3289   12.7942 C.ar    1  UNL1        0.1177
     39 N          67.2852   92.8657   11.9874 N.ar    1  UNL1       -0.1679
     40 N          66.8188   93.0267   10.5708 N.ar    1  UNL1       -0.2477
     41 C          67.6412   93.5357    9.4243 C.3     1  UNL1        0.1537
     42 C          65.3856   92.5895   10.5023 C.ar    1  UNL1        0.0927
     43 S          62.3093   85.8233   11.6311 S.3     1  UNL1       -0.0724
     44 C          62.8992   84.8161   12.5733 C.3     1  UNL1        0.0913
     45 C          62.9944   85.1250   14.0380 C.ar    1  UNL1       -0.0108
     46 C          64.2721   85.6648   14.6091 C.ar    1  UNL1       -0.0011
     47 C          64.3673   85.9738   16.0739 C.ar    1  UNL1        0.0293
     48 C          63.1849   85.7429   16.9675 C.ar    1  UNL1        0.1401
     49 F          63.2801   86.0518   18.4323 F       1  UNL1       -0.2042
     50 C          61.9072   85.2030   16.3963 C.ar    1  UNL1        0.0293
     51 C          61.8120   84.8941   14.9316 C.ar    1  UNL1       -0.0011
@<TRIPOS>BOND
     1    24    25    1
     2    25    23    1
     3    23    26    1
     4    26    27    1
     5    23    22    1
     6    22    21    1
     7    21     1    1
     8     1     4    1
     9     4     5    1
    10     5     6   ar
    11     6     7   ar
    12     7     8   ar
    13     8    11    1
    14    11    12   ar
    15    12    13   ar
    16    13    14   ar
    17    14    17    1
    18    17    18    1
    19    17    19    1
    20    17    20    1
    21    14    15   ar
    22    15    16   ar
    23     8     9   ar
    24     9    10   ar
    25     1     2   am
    26     2     3    2
    27     2    28    1
    28    28    29    1
    29    29    30   ar
    30    30    31   ar
    31    31    36    1
    32    36    37    1
    33    37    38   ar
    34    38    39   ar
    35    39    40   ar
    36    40    41    1
    37    40    42   ar
    38    31    32   ar
    39    32    33    2
    40    32    34   ar
    41    34    35   ar
    42    35    43    1
    43    43    44    1
    44    44    45    1
    45    45    46   ar
    46    46    47   ar
    47    47    48   ar
    48    48    49    1
    49    48    50   ar
    50    50    51   ar
    51    10     5   ar
    52    35    29   ar
    53    51    45   ar
    54    16    11   ar
    55    42    37   ar
@<TRIPOS>MOLECULE
*****
 51 55 0 0 0
SMALL
GASTEIGER

@<TRIPOS>ATOM
      1 N          61.5800   87.2999   11.1589 N.am    1  UNL1       -0.2724
      2 C          62.2256   88.4497   11.8737 C.2     1  UNL1        0.2491
      3 O          61.5440   89.7852   11.9150 O.2     1  UNL1       -0.2727
      4 C          60.2526   87.4856   10.4854 C.3     1  UNL1        0.1202
      5 C          60.1521   88.3205    9.2433 C.ar    1  UNL1       -0.0023
      6 C          59.4792   87.7690    8.0213 C.ar    1  UNL1       -0.0026
      7 C          59.3787   88.6039    6.7793 C.ar    1  UNL1       -0.0003
      8 C          59.9510   89.9903    6.7592 C.ar    1  UNL1       -0.0000
      9 C          60.6239   90.5418    7.9811 C.ar    1  UNL1       -0.0003
     10 C          60.7244   89.7069    9.2231 C.ar    1  UNL1       -0.0026
     11 C          59.8505   90.8252    5.5170 C.ar    1  UNL1       -0.0000
     12 C          58.5152   91.3354    5.0622 C.ar    1  UNL1       -0.0001
     13 C          58.4147   92.1703    3.8201 C.ar    1  UNL1        0.0039
     14 C          59.6495   92.4951    3.0328 C.ar    1  UNL1        0.0714
     15 C          60.9848   91.9849    3.4876 C.ar    1  UNL1        0.0039
     16 C          61.0852   91.1500    4.7297 C.ar    1  UNL1       -0.0001
     17 C          59.5490   93.3299    1.7907 C.3     1  UNL1        0.4186
     18 F          59.4485   94.1648    0.5486 F       1  UNL1       -0.1659
     19 F          58.9190   92.1771    1.0668 F       1  UNL1       -0.1659
     20 F          60.1789   94.4828    2.5146 F       1  UNL1       -0.1659
     21 C          62.2617   85.9644   11.1176 C.3     1  UNL1        0.1111
     22 C          61.9531   84.9987   10.0121 C.3     1  UNL1        0.0939
     23 N          63.0487   84.5218    9.1053 N.3     1  UNL1       -0.2712
     24 C          63.8647   82.3771   10.3237 C.3     1  UNL1        0.0188
     25 C          64.1661   83.6853    9.6546 C.3     1  UNL1        0.0722
     26 C          63.0270   84.8815    7.6493 C.3     1  UNL1        0.0722
     27 C          61.7264   84.9068    6.9023 C.3     1  UNL1        0.0188
     28 C          63.5531   88.2640   12.5472 C.3     1  UNL1        0.1934
     29 N          63.6277   87.5873   13.8838 N.ar    1  UNL1       -0.2979
     30 C          63.9371   86.1218   13.9662 C.ar    1  UNL1        0.0786
     31 C          64.0118   85.4450   15.3027 C.ar    1  UNL1        0.0574
     32 C          63.7771   86.2337   16.5569 C.ar    1  UNL1        0.2786
     33 O          63.8518   85.5570   17.8935 O.2     1  UNL1       -0.2654
     34 N          63.4677   87.6991   16.4745 N.ar    1  UNL1       -0.1847
     35 C          63.3930   88.3759   15.1379 C.ar    1  UNL1        0.1750
     36 C          64.3212   83.9796   15.3852 C.3     1  UNL1        0.0622
     37 C          63.3931   82.9808   14.7597 C.ar    1  UNL1        0.0220
     38 C          61.8961   82.9887   14.8537 C.ar    1  UNL1        0.1177
     39 N          61.3770   81.8115   14.0826 N.ar    1  UNL1       -0.1679
     40 N          62.5532   81.0760   13.5120 N.ar    1  UNL1       -0.2477
     41 C          62.4938   79.8356   12.6706 C.3     1  UNL1        0.1537
     42 C          63.7992   81.7986   13.9305 C.ar    1  UNL1        0.0927
     43 S          63.0837   89.8413   15.0555 S.3     1  UNL1       -0.0724
     44 C          64.1604   90.8513   15.3212 C.3     1  UNL1        0.0913
     45 C          64.9874   91.3818   14.1878 C.ar    1  UNL1       -0.0108
     46 C          64.3435   91.6850   12.8675 C.ar    1  UNL1       -0.0011
     47 C          65.1705   92.2155   11.7339 C.ar    1  UNL1        0.0293
     48 C          66.6413   92.4427   11.9209 C.ar    1  UNL1        0.1401
     49 F          67.4683   92.9731   10.7874 F       1  UNL1       -0.2042
     50 C          67.2852   92.1394   13.2413 C.ar    1  UNL1        0.0293
     51 C          66.4583   91.6089   14.3747 C.ar    1  UNL1       -0.0011
@<TRIPOS>BOND
     1    24    25    1
     2    25    23    1
     3    23    26    1
     4    26    27    1
     5    23    22    1
     6    22    21    1
     7    21     1    1
     8     1     4    1
     9     4     5    1
    10     5     6   ar
    11     6     7   ar
    12     7     8   ar
    13     8    11    1
    14    11    12   ar
    15    12    13   ar
    16    13    14   ar
    17    14    17    1
    18    17    18    1
    19    17    19    1
    20    17    20    1
    21    14    15   ar
    22    15    16   ar
    23     8     9   ar
    24     9    10   ar
    25     1     2   am
    26     2     3    2
    27     2    28    1
    28    28    29    1
    29    29    30   ar
    30    30    31   ar
    31    31    36    1
    32    36    37    1
    33    37    38   ar
    34    38    39   ar
    35    39    40   ar
    36    40    41    1
    37    40    42   ar
    38    31    32   ar
    39    32    33    2
    40    32    34   ar
    41    34    35   ar
    42    35    43    1
    43    43    44    1
    44    44    45    1
    45    45    46   ar
    46    46    47   ar
    47    47    48   ar
    48    48    49    1
    49    48    50   ar
    50    50    51   ar
    51    10     5   ar
    52    35    29   ar
    53    51    45   ar
    54    16    11   ar
    55    42    37   ar
@<TRIPOS>MOLECULE
*****
 51 55 0 0 0
SMALL
GASTEIGER

@<TRIPOS>ATOM
      1 N          62.1521   89.4332   10.5044 N.am    1  UNL1       -0.2724
      2 C          62.8980   89.5352   11.8018 C.2     1  UNL1        0.2491
      3 O          63.9336   88.5090   12.1542 O.2     1  UNL1       -0.2727
      4 C          62.4419   88.3051    9.5594 C.3     1  UNL1        0.1202
      5 C          62.4773   86.8933   10.0651 C.ar    1  UNL1       -0.0023
      6 C          62.0629   86.5910   11.4747 C.ar    1  UNL1       -0.0026
      7 C          62.0982   85.1793   11.9804 C.ar    1  UNL1       -0.0003
      8 C          62.5480   84.0699   11.0765 C.ar    1  UNL1       -0.0000
      9 C          62.9624   84.3722    9.6670 C.ar    1  UNL1       -0.0003
     10 C          62.9270   85.7839    9.1613 C.ar    1  UNL1       -0.0026
     11 C          62.5834   82.6581   11.5823 C.ar    1  UNL1       -0.0000
     12 C          63.1102   81.5605   10.7061 C.ar    1  UNL1       -0.0001
     13 C          63.1455   80.1487   11.2119 C.ar    1  UNL1        0.0039
     14 C          62.6541   79.8346   12.5939 C.ar    1  UNL1        0.0714
     15 C          62.1272   80.9323   13.4700 C.ar    1  UNL1        0.0039
     16 C          62.0919   82.3440   12.9643 C.ar    1  UNL1       -0.0001
     17 C          62.6894   78.4230   13.0996 C.3     1  UNL1        0.4186
     18 F          62.7247   77.0113   13.6054 F       1  UNL1       -0.1659
     19 F          62.5974   78.9259   14.5098 F       1  UNL1       -0.1659
     20 F          62.7814   77.9200   11.6895 F       1  UNL1       -0.1659
     21 C          61.1164   90.4595   10.1521 C.3     1  UNL1        0.1111
     22 C          59.7622   90.0253    9.6749 C.3     1  UNL1        0.0939
     23 N          59.6436   89.0462    8.5448 N.3     1  UNL1       -0.2712
     24 C          59.5369   86.5461    7.8460 C.3     1  UNL1        0.0188
     25 C          59.1971   87.6398    8.8147 C.3     1  UNL1        0.0722
     26 C          59.9716   89.4734    7.1448 C.3     1  UNL1        0.0722
     27 C          58.8919   90.0090    6.2518 C.3     1  UNL1        0.0188
     28 C          62.6081   90.6635   12.7469 C.3     1  UNL1        0.1934
     29 N          63.7166   91.2655   13.5586 N.ar    1  UNL1       -0.2979
     30 C          64.7440   92.1352   12.8966 C.ar    1  UNL1        0.0786
     31 C          65.8525   92.7371   13.7083 C.ar    1  UNL1        0.0574
     32 C          65.9336   92.4694   15.1821 C.ar    1  UNL1        0.2786
     33 O          67.0421   93.0713   15.9938 O.2     1  UNL1       -0.2654
     34 N          64.9063   91.5997   15.8440 N.ar    1  UNL1       -0.1847
     35 C          63.7978   90.9977   15.0322 C.ar    1  UNL1        0.1750
     36 C          66.8798   93.6068   13.0464 C.3     1  UNL1        0.0622
     37 C          66.6203   94.1662   11.6789 C.ar    1  UNL1        0.0220
     38 C          66.8881   93.4714   10.3768 C.ar    1  UNL1        0.1177
     39 N          66.4808   94.3943    9.2667 N.ar    1  UNL1       -0.1679
     40 N          65.9613   95.6595    9.8828 N.ar    1  UNL1       -0.2477
     41 C          65.4460   96.8556    9.1386 C.3     1  UNL1        0.1537
     42 C          66.0475   95.5185   11.3736 C.ar    1  UNL1        0.0927
     43 S          62.7704   90.1280   15.6942 S.3     1  UNL1       -0.0724
     44 C          63.1902   89.1255   16.7280 C.3     1  UNL1        0.0913
     45 C          63.4218   87.6962   16.3362 C.ar    1  UNL1       -0.0108
     46 C          64.3008   87.3728   15.1646 C.ar    1  UNL1       -0.0011
     47 C          64.5325   85.9435   14.7728 C.ar    1  UNL1        0.0293
     48 C          63.8852   84.8377   15.5526 C.ar    1  UNL1        0.1401
     49 F          64.1168   83.4084   15.1608 F       1  UNL1       -0.2042
     50 C          63.0061   85.1612   16.7243 C.ar    1  UNL1        0.0293
     51 C          62.7745   86.5904   17.1161 C.ar    1  UNL1       -0.0011
@<TRIPOS>BOND
     1    24    25    1
     2    25    23    1
     3    23    26    1
     4    26    27    1
     5    23    22    1
     6    22    21    1
     7    21     1    1
     8     1     4    1
     9     4     5    1
    10     5     6   ar
    11     6     7   ar
    12     7     8   ar
    13     8    11    1
    14    11    12   ar
    15    12    13   ar
    16    13    14   ar
    17    14    17    1
    18    17    18    1
    19    17    19    1
    20    17    20    1
    21    14    15   ar
    22    15    16   ar
    23     8     9   ar
    24     9    10   ar
    25     1     2   am
    26     2     3    2
    27     2    28    1
    28    28    29    1
    29    29    30   ar
    30    30    31   ar
    31    31    36    1
    32    36    37    1
    33    37    38   ar
    34    38    39   ar
    35    39    40   ar
    36    40    41    1
    37    40    42   ar
    38    31    32   ar
    39    32    33    2
    40    32    34   ar
    41    34    35   ar
    42    35    43    1
    43    43    44    1
    44    44    45    1
    45    45    46   ar
    46    46    47   ar
    47    47    48   ar
    48    48    49    1
    49    48    50   ar
    50    50    51   ar
    51    10     5   ar
    52    35    29   ar
    53    51    45   ar
    54    16    11   ar
    55    42    37   ar
@<TRIPOS>MOLECULE
*****
 51 55 0 0 0
SMALL
GASTEIGER

@<TRIPOS>ATOM
      1 N          61.6602   87.3108   11.3306 N.am    1  UNL1       -0.2724
      2 C          62.0973   88.5650   12.0276 C.2     1  UNL1        0.2491
      3 O          61.2763   89.8146   11.9080 O.2     1  UNL1       -0.2727
      4 C          60.4020   87.3062   10.5139 C.3     1  UNL1        0.1202
      5 C          60.2988   88.1679    9.2904 C.ar    1  UNL1       -0.0023
      6 C          59.4240   87.7458    8.1474 C.ar    1  UNL1       -0.0026
      7 C          59.3209   88.6075    6.9240 C.ar    1  UNL1       -0.0003
      8 C          60.0925   89.8913    6.8436 C.ar    1  UNL1       -0.0000
      9 C          60.9673   90.3134    7.9866 C.ar    1  UNL1       -0.0003
     10 C          61.0704   89.4517    9.2100 C.ar    1  UNL1       -0.0026
     11 C          59.9893   90.7530    5.6201 C.ar    1  UNL1       -0.0000
     12 C          61.2125   91.0434    4.8019 C.ar    1  UNL1       -0.0001
     13 C          61.1093   91.9051    3.5784 C.ar    1  UNL1        0.0039
     14 C          59.7829   92.4764    3.1732 C.ar    1  UNL1        0.0714
     15 C          58.5596   92.1859    3.9914 C.ar    1  UNL1        0.0039
     16 C          58.6629   91.3243    5.2148 C.ar    1  UNL1       -0.0001
     17 C          59.6796   93.3380    1.9497 C.3     1  UNL1        0.4186
     18 F          59.5764   94.1997    0.7263 F       1  UNL1       -0.1659
     19 F          60.0922   94.5332    2.7567 F       1  UNL1       -0.1659
     20 F          59.2670   92.1428    1.1428 F       1  UNL1       -0.1659
     21 C          62.4813   86.0612   11.4503 C.3     1  UNL1        0.1111
     22 C          62.1670   84.8722   10.5915 C.3     1  UNL1        0.0939
     23 N          63.1151   84.4607    9.5044 N.3     1  UNL1       -0.2712
     24 C          61.9052   85.2095    7.3306 C.3     1  UNL1        0.0188
     25 C          63.1274   85.2013    8.2000 C.3     1  UNL1        0.0722
     26 C          64.0508   83.3086    9.7216 C.3     1  UNL1        0.0722
     27 C          64.5532   83.0002   11.1009 C.3     1  UNL1        0.0188
     28 C          63.3555   88.5696   12.8443 C.3     1  UNL1        0.1934
     29 N          63.2993   88.2567   14.3102 N.ar    1  UNL1       -0.2979
     30 C          63.1402   86.8373   14.7686 C.ar    1  UNL1        0.0786
     31 C          63.0840   86.5244   16.2345 C.ar    1  UNL1        0.0574
     32 C          63.1868   87.6310   17.2421 C.ar    1  UNL1        0.2786
     33 O          63.1305   87.3181   18.7080 O.2     1  UNL1       -0.2654
     34 N          63.3458   89.0503   16.7837 N.ar    1  UNL1       -0.1847
     35 C          63.4021   89.3632   15.3178 C.ar    1  UNL1        0.1750
     36 C          62.9249   85.1051   16.6929 C.3     1  UNL1        0.0622
     37 C          63.0731   83.9793   15.7127 C.ar    1  UNL1        0.0220
     38 C          64.3661   83.3668   15.2624 C.ar    1  UNL1        0.1177
     39 N          64.0464   82.2773   14.2822 N.ar    1  UNL1       -0.1679
     40 N          62.5557   82.2164   14.1267 N.ar    1  UNL1       -0.2477
     41 C          61.7993   81.2699   13.2424 C.3     1  UNL1        0.1537
     42 C          61.9542   83.2683   15.0109 C.ar    1  UNL1        0.0927
     43 S          63.5611   90.7825   14.8594 S.3     1  UNL1       -0.0724
     44 C          64.3827   91.7437   15.6664 C.3     1  UNL1        0.0913
     45 C          65.8232   91.9754   15.3181 C.ar    1  UNL1       -0.0108
     46 C          66.7457   92.6027   16.3208 C.ar    1  UNL1       -0.0011
     47 C          68.1862   92.8344   15.9725 C.ar    1  UNL1        0.0293
     48 C          68.7041   92.4388   14.6215 C.ar    1  UNL1        0.1401
     49 F          70.1446   92.6705   14.2731 F       1  UNL1       -0.2042
     50 C          67.7815   91.8116   13.6187 C.ar    1  UNL1        0.0293
     51 C          66.3411   91.5799   13.9670 C.ar    1  UNL1       -0.0011
@<TRIPOS>BOND
     1    24    25    1
     2    25    23    1
     3    23    26    1
     4    26    27    1
     5    23    22    1
     6    22    21    1
     7    21     1    1
     8     1     4    1
     9     4     5    1
    10     5     6   ar
    11     6     7   ar
    12     7     8   ar
    13     8    11    1
    14    11    12   ar
    15    12    13   ar
    16    13    14   ar
    17    14    17    1
    18    17    18    1
    19    17    19    1
    20    17    20    1
    21    14    15   ar
    22    15    16   ar
    23     8     9   ar
    24     9    10   ar
    25     1     2   am
    26     2     3    2
    27     2    28    1
    28    28    29    1
    29    29    30   ar
    30    30    31   ar
    31    31    36    1
    32    36    37    1
    33    37    38   ar
    34    38    39   ar
    35    39    40   ar
    36    40    41    1
    37    40    42   ar
    38    31    32   ar
    39    32    33    2
    40    32    34   ar
    41    34    35   ar
    42    35    43    1
    43    43    44    1
    44    44    45    1
    45    45    46   ar
    46    46    47   ar
    47    47    48   ar
    48    48    49    1
    49    48    50   ar
    50    50    51   ar
    51    10     5   ar
    52    35    29   ar
    53    51    45   ar
    54    16    11   ar
    55    42    37   ar
@<TRIPOS>MOLECULE
*****
 51 55 0 0 0
SMALL
GASTEIGER

@<TRIPOS>ATOM
      1 N          62.1279   89.3871   10.7433 N.am    1  UNL1       -0.2724
      2 C          62.8342   89.3606   12.0663 C.2     1  UNL1        0.2491
      3 O          63.8984   88.3364   12.3280 O.2     1  UNL1       -0.2727
      4 C          62.4857   88.3894    9.6820 C.3     1  UNL1        0.1202
      5 C          62.5391   86.9276   10.0142 C.ar    1  UNL1       -0.0023
      6 C          63.1085   85.9540    9.0253 C.ar    1  UNL1       -0.0026
      7 C          63.1619   84.4923    9.3575 C.ar    1  UNL1       -0.0003
      8 C          62.6460   84.0041   10.6787 C.ar    1  UNL1       -0.0000
      9 C          62.0767   84.9776   11.6676 C.ar    1  UNL1       -0.0003
     10 C          62.0232   86.4394   11.3354 C.ar    1  UNL1       -0.0026
     11 C          62.6995   82.5423   11.0109 C.ar    1  UNL1       -0.0000
     12 C          62.3403   82.0728   12.3895 C.ar    1  UNL1       -0.0001
     13 C          62.3937   80.6110   12.7217 C.ar    1  UNL1        0.0039
     14 C          62.8064   79.6187   11.6753 C.ar    1  UNL1        0.0714
     15 C          63.1656   80.0882   10.2966 C.ar    1  UNL1        0.0039
     16 C          63.1121   81.5500    9.9645 C.ar    1  UNL1       -0.0001
     17 C          62.8599   78.1570   12.0075 C.3     1  UNL1        0.4186
     18 F          62.9134   76.6952   12.3396 F       1  UNL1       -0.1659
     19 F          62.9551   77.8286   10.5470 F       1  UNL1       -0.1659
     20 F          62.7647   78.4853   13.4679 F       1  UNL1       -0.1659
     21 C          61.0637   90.4114   10.4816 C.3     1  UNL1        0.1111
     22 C          59.7436   89.9913    9.9066 C.3     1  UNL1        0.0939
     23 N          59.6979   89.0186    8.7658 N.3     1  UNL1       -0.2712
     24 C          58.9236   89.7537    6.3972 C.3     1  UNL1        0.0188
     25 C          60.0263   89.4768    7.3757 C.3     1  UNL1        0.0722
     26 C          59.3239   87.5875    9.0150 C.3     1  UNL1        0.0722
     27 C          59.3927   86.5889    7.8977 C.3     1  UNL1        0.0188
     28 C          62.4764   90.3584   13.1277 C.3     1  UNL1        0.1934
     29 N          63.5544   90.9872   13.9599 N.ar    1  UNL1       -0.2979
     30 C          64.5367   91.9285   13.3282 C.ar    1  UNL1        0.0786
     31 C          65.6147   92.5572   14.1604 C.ar    1  UNL1        0.0574
     32 C          65.7103   92.2447   15.6245 C.ar    1  UNL1        0.2786
     33 O          66.7883   92.8735   16.4567 O.2     1  UNL1       -0.2654
     34 N          64.7280   91.3035   16.2561 N.ar    1  UNL1       -0.1847
     35 C          63.6500   90.6747   15.4239 C.ar    1  UNL1        0.1750
     36 C          66.5970   93.4985   13.5288 C.3     1  UNL1        0.0622
     37 C          66.8424   93.4451   12.0499 C.ar    1  UNL1        0.0220
     38 C          66.2042   94.3270   11.0179 C.ar    1  UNL1        0.1177
     39 N          66.7364   93.9274    9.6736 N.ar    1  UNL1       -0.1679
     40 N          67.7036   92.7986    9.8748 N.ar    1  UNL1       -0.2477
     41 C          68.4706   92.0920    8.7967 C.3     1  UNL1        0.1537
     42 C          67.7691   92.5006   11.3434 C.ar    1  UNL1        0.0927
     43 S          62.6677   89.7335   16.0555 S.3     1  UNL1       -0.0724
     44 C          63.1523   88.6399   16.9608 C.3     1  UNL1        0.0913
     45 C          63.3729   87.2593   16.4176 C.ar    1  UNL1       -0.0108
     46 C          62.6506   86.0915   17.0214 C.ar    1  UNL1       -0.0011
     47 C          62.8711   84.7108   16.4782 C.ar    1  UNL1        0.0293
     48 C          63.8141   84.4979   15.3312 C.ar    1  UNL1        0.1401
     49 F          64.0347   83.1172   14.7880 F       1  UNL1       -0.2042
     50 C          64.5364   85.6657   14.7274 C.ar    1  UNL1        0.0293
     51 C          64.3158   87.0463   15.2706 C.ar    1  UNL1       -0.0011
@<TRIPOS>BOND
     1    24    25    1
     2    25    23    1
     3    23    26    1
     4    26    27    1
     5    23    22    1
     6    22    21    1
     7    21     1    1
     8     1     4    1
     9     4     5    1
    10     5     6   ar
    11     6     7   ar
    12     7     8   ar
    13     8    11    1
    14    11    12   ar
    15    12    13   ar
    16    13    14   ar
    17    14    17    1
    18    17    18    1
    19    17    19    1
    20    17    20    1
    21    14    15   ar
    22    15    16   ar
    23     8     9   ar
    24     9    10   ar
    25     1     2   am
    26     2     3    2
    27     2    28    1
    28    28    29    1
    29    29    30   ar
    30    30    31   ar
    31    31    36    1
    32    36    37    1
    33    37    38   ar
    34    38    39   ar
    35    39    40   ar
    36    40    41    1
    37    40    42   ar
    38    31    32   ar
    39    32    33    2
    40    32    34   ar
    41    34    35   ar
    42    35    43    1
    43    43    44    1
    44    44    45    1
    45    45    46   ar
    46    46    47   ar
    47    47    48   ar
    48    48    49    1
    49    48    50   ar
    50    50    51   ar
    51    10     5   ar
    52    35    29   ar
    53    51    45   ar
    54    16    11   ar
    55    42    37   ar
@<TRIPOS>MOLECULE
*****
 51 55 0 0 0
SMALL
GASTEIGER

@<TRIPOS>ATOM
      1 N          59.6771   88.1923    8.0320 N.am    1  UNL1       -0.2724
      2 C          60.1067   88.0632    9.4634 C.2     1  UNL1        0.2491
      3 O          59.7047   89.1057   10.4641 O.2     1  UNL1       -0.2727
      4 C          58.8455   89.3640    7.6014 C.3     1  UNL1        0.1202
      5 C          59.2499   90.1708    6.4032 C.ar    1  UNL1       -0.0023
      6 C          58.2182   90.9443    5.6369 C.ar    1  UNL1       -0.0026
      7 C          58.6226   91.7511    4.4388 C.ar    1  UNL1       -0.0003
      8 C          60.0586   91.7843    4.0069 C.ar    1  UNL1       -0.0000
      9 C          61.0903   91.0107    4.7731 C.ar    1  UNL1       -0.0003
     10 C          60.6860   90.2040    5.9713 C.ar    1  UNL1       -0.0026
     11 C          60.4630   92.5910    2.8086 C.ar    1  UNL1       -0.0000
     12 C          61.9159   92.7809    2.4879 C.ar    1  UNL1       -0.0001
     13 C          62.3203   93.5877    1.2896 C.ar    1  UNL1        0.0039
     14 C          61.2717   94.2046    0.4122 C.ar    1  UNL1        0.0714
     15 C          59.8187   94.0147    0.7331 C.ar    1  UNL1        0.0039
     16 C          59.4144   93.2079    1.9312 C.ar    1  UNL1       -0.0001
     17 C          61.6760   95.0113   -0.7859 C.3     1  UNL1        0.4186
     18 F          62.0803   95.8181   -1.9841 F       1  UNL1       -0.1659
     19 F          61.2025   93.9098   -1.6873 F       1  UNL1       -0.1659
     20 F          62.1494   96.1128    0.1155 F       1  UNL1       -0.1659
     21 C          60.0792   87.1497    7.0313 C.3     1  UNL1        0.1111
     22 C          60.3077   85.7347    7.4732 C.3     1  UNL1        0.0939
     23 N          61.5480   85.0068    7.0469 N.3     1  UNL1       -0.2712
     24 C          62.1468   84.3318    4.6105 C.3     1  UNL1        0.0188
     25 C          61.4876   84.0178    5.9207 C.3     1  UNL1        0.0722
     26 C          62.8488   85.2681    7.7466 C.3     1  UNL1        0.0722
     27 C          63.2614   84.4116    8.9070 C.3     1  UNL1        0.0188
     28 C          60.9384   86.8914    9.8940 C.3     1  UNL1        0.1934
     29 N          61.8450   87.0117   11.0830 N.ar    1  UNL1       -0.2979
     30 C          61.9897   85.8617   12.0352 C.ar    1  UNL1        0.0786
     31 C          62.8963   85.9820   13.2242 C.ar    1  UNL1        0.0574
     32 C          63.6582   87.2523   13.4609 C.ar    1  UNL1        0.2786
     33 O          64.5648   87.3726   14.6498 O.2     1  UNL1       -0.2654
     34 N          63.5135   88.4022   12.5086 N.ar    1  UNL1       -0.1847
     35 C          62.6069   88.2819   11.3197 C.ar    1  UNL1        0.1750
     36 C          63.0410   84.8321   14.1764 C.3     1  UNL1        0.0622
     37 C          63.1702   83.4336   13.6494 C.ar    1  UNL1        0.0220
     38 C          64.1893   82.9556   12.6581 C.ar    1  UNL1        0.1177
     39 N          63.9518   81.4942   12.4173 N.ar    1  UNL1       -0.1679
     40 N          62.7859   81.0690   13.2599 N.ar    1  UNL1       -0.2477
     41 C          62.2051   79.6878   13.3289 C.3     1  UNL1        0.1537
     42 C          62.3029   82.2677   14.0214 C.ar    1  UNL1        0.0927
     43 S          62.4622   89.4318   10.3675 S.3     1  UNL1       -0.0724
     44 C          62.4809   90.8400   10.8837 C.3     1  UNL1        0.0913
     45 C          63.7312   91.3976   11.4966 C.ar    1  UNL1       -0.0108
     46 C          64.7250   92.1264   10.6414 C.ar    1  UNL1       -0.0011
     47 C          65.9755   92.6840   11.2542 C.ar    1  UNL1        0.0293
     48 C          66.2321   92.5129   12.7222 C.ar    1  UNL1        0.1401
     49 F          67.4824   93.0705   13.3350 F       1  UNL1       -0.2042
     50 C          65.2382   91.7841   13.5773 C.ar    1  UNL1        0.0293
     51 C          63.9878   91.2265   12.9645 C.ar    1  UNL1       -0.0011
@<TRIPOS>BOND
     1    24    25    1
     2    25    23    1
     3    23    26    1
     4    26    27    1
     5    23    22    1
     6    22    21    1
     7    21     1    1
     8     1     4    1
     9     4     5    1
    10     5     6   ar
    11     6     7   ar
    12     7     8   ar
    13     8    11    1
    14    11    12   ar
    15    12    13   ar
    16    13    14   ar
    17    14    17    1
    18    17    18    1
    19    17    19    1
    20    17    20    1
    21    14    15   ar
    22    15    16   ar
    23     8     9   ar
    24     9    10   ar
    25     1     2   am
    26     2     3    2
    27     2    28    1
    28    28    29    1
    29    29    30   ar
    30    30    31   ar
    31    31    36    1
    32    36    37    1
    33    37    38   ar
    34    38    39   ar
    35    39    40   ar
    36    40    41    1
    37    40    42   ar
    38    31    32   ar
    39    32    33    2
    40    32    34   ar
    41    34    35   ar
    42    35    43    1
    43    43    44    1
    44    44    45    1
    45    45    46   ar
    46    46    47   ar
    47    47    48   ar
    48    48    49    1
    49    48    50   ar
    50    50    51   ar
    51    10     5   ar
    52    35    29   ar
    53    51    45   ar
    54    16    11   ar
    55    42    37   ar
