@<TRIPOS>MOLECULE
*****
 31 34 0 0 0
SMALL
GASTEIGER

@<TRIPOS>ATOM
      1 C          59.0876   88.4888    7.3553 C.3     1  UNL1        0.0518
      2 C          60.0559   88.4475    8.5003 C.ar    1  UNL1        0.0563
      3 N          60.4423   89.7158    9.2017 N.ar    1  UNL1       -0.2524
      4 C          61.4106   89.6746   10.3466 C.ar    1  UNL1        0.0830
      5 C          61.9923   88.3651   10.7901 C.ar    1  UNL1        0.0686
      6 C          61.6059   87.0968   10.0886 C.ar    1  UNL1        0.0048
      7 C          60.6376   87.1381    8.9437 C.ar    1  UNL1        0.0072
      8 C          62.9160   88.6342   11.9409 C.2     1  UNL1        0.2509
      9 O          63.7110   87.6077   12.6921 O.2     1  UNL1       -0.2698
     10 N          62.9050   90.1100   12.2087 N.am    1  UNL1       -0.2620
     11 C          61.9747   90.7531   11.2234 C.3     1  UNL1        0.1401
     12 C          62.1876   85.7872   10.5321 C.ar    1  UNL1        0.0106
     13 C          61.8310   85.2249   11.8762 C.ar    1  UNL1        0.0017
     14 C          62.4127   83.9153   12.3197 C.ar    1  UNL1        0.0114
     15 C          63.3510   83.1681   11.4190 C.ar    1  UNL1        0.0585
     16 CL         63.9327   81.8585   11.8625 Cl      1  UNL1       -0.0822
     17 C          63.7076   83.7304   10.0749 C.ar    1  UNL1        0.0228
     18 C          63.1260   85.0400    9.6314 C.ar    1  UNL1        0.0585
     19 CL         63.4826   85.6023    8.2873 Cl      1  UNL1       -0.0822
     20 C          60.2511   85.8697    8.2422 C.3     1  UNL1        0.0934
     21 N          60.7271   85.6113    6.8434 N.3     1  UNL1       -0.3174
     22 H          60.3067   86.2914    6.2101 H       1  UNL1        0.1192
     23 H          60.4553   84.6698    6.5603 H       1  UNL1        0.1192
     24 C          63.6872   90.8185   13.2747 C.3     1  UNL1        0.1798
     25 C          64.8098   91.7381   12.8952 C.2     1  UNL1        0.2460
     26 O          65.0105   92.1241   11.4597 O.2     1  UNL1       -0.2730
     27 N          65.7318   92.2717   13.9513 N.am    1  UNL1       -0.2781
     28 C          65.6556   91.9756   15.4197 C.3     1  UNL1        0.0935
     29 C          66.7685   92.7160   16.1002 C.3     1  UNL1        0.0233
     30 C          67.5326   93.4698   15.0524 C.3     1  UNL1        0.0233
     31 C          66.8917   93.1952   13.7242 C.3     1  UNL1        0.0935
@<TRIPOS>BOND
     1     1     2    1
     2     2     3   ar
     3     3     4   ar
     4     4     5   ar
     5     5     6   ar
     6     6    12    1
     7    12    13   ar
     8    13    14   ar
     9    14    15   ar
    10    15    16    1
    11    15    17   ar
    12    17    18   ar
    13    18    19    1
    14     6     7   ar
    15     7    20    1
    16    20    21    1
    17     5     8    1
    18     8     9    2
    19     8    10   am
    20    10    24    1
    21    24    25    1
    22    25    26    2
    23    25    27   am
    24    27    28    1
    25    28    29    1
    26    29    30    1
    27    30    31    1
    28    10    11    1
    29     7     2   ar
    30    31    27    1
    31    11     4    1
    32    18    12   ar
    33    21    22    1
    34    21    23    1
@<TRIPOS>MOLECULE
*****
 31 34 0 0 0
SMALL
GASTEIGER

@<TRIPOS>ATOM
      1 C          63.9584   83.9324   14.6662 C.3     1  UNL1        0.0518
      2 C          63.7192   85.2289   13.9508 C.ar    1  UNL1        0.0563
      3 N          64.2547   86.5093   14.5198 N.ar    1  UNL1       -0.2524
      4 C          64.0155   87.8059   13.8045 C.ar    1  UNL1        0.0830
      5 C          63.2407   87.8220   12.5201 C.ar    1  UNL1        0.0686
      6 C          62.7053   86.5416   11.9511 C.ar    1  UNL1        0.0048
      7 C          62.9445   85.2451   12.6665 C.ar    1  UNL1        0.0072
      8 C          63.1640   89.2420   12.0429 C.2     1  UNL1        0.2509
      9 O          62.4801   89.7171   10.7953 O.2     1  UNL1       -0.2698
     10 N          63.8913   90.1034   13.0323 N.am    1  UNL1       -0.2620
     11 C          64.4175   89.2159   14.1210 C.3     1  UNL1        0.1401
     12 C          61.9305   86.5577   10.6667 C.ar    1  UNL1        0.0106
     13 C          62.5022   85.9148    9.4380 C.ar    1  UNL1        0.0017
     14 C          61.7276   85.9308    8.1536 C.ar    1  UNL1        0.0114
     15 C          60.3812   86.5897    8.0980 C.ar    1  UNL1        0.0585
     16 CL         59.6066   86.6057    6.8136 Cl      1  UNL1       -0.0822
     17 C          59.8095   87.2327    9.3268 C.ar    1  UNL1        0.0228
     18 C          60.5842   87.2167   10.6112 C.ar    1  UNL1        0.0585
     19 CL         60.0125   87.8596   11.8399 Cl      1  UNL1       -0.0822
     20 C          62.4090   83.9646   12.0975 C.3     1  UNL1        0.0934
     21 N          63.3211   83.0354   11.3528 N.3     1  UNL1       -0.3174
     22 H          63.6368   83.4852   10.4934 H       1  UNL1        0.1192
     23 H          62.8191   82.1778   11.1230 H       1  UNL1        0.1192
     24 C          64.0624   91.5913   12.9478 C.3     1  UNL1        0.1798
     25 C          65.4351   92.1824   12.8205 C.2     1  UNL1        0.2460
     26 O          66.0097   92.4590   11.4629 O.2     1  UNL1       -0.2730
     27 N          66.2333   92.4968   14.0510 N.am    1  UNL1       -0.2781
     28 C          65.7929   92.2763   15.4678 C.3     1  UNL1        0.0935
     29 C          66.8995   92.7302   16.3731 C.3     1  UNL1        0.0233
     30 C          68.0238   93.2312   15.5158 C.3     1  UNL1        0.0233
     31 C          67.6120   93.0869   14.0806 C.3     1  UNL1        0.0935
@<TRIPOS>BOND
     1     1     2    1
     2     2     3   ar
     3     3     4   ar
     4     4     5   ar
     5     5     6   ar
     6     6    12    1
     7    12    13   ar
     8    13    14   ar
     9    14    15   ar
    10    15    16    1
    11    15    17   ar
    12    17    18   ar
    13    18    19    1
    14     6     7   ar
    15     7    20    1
    16    20    21    1
    17     5     8    1
    18     8     9    2
    19     8    10   am
    20    10    24    1
    21    24    25    1
    22    25    26    2
    23    25    27   am
    24    27    28    1
    25    28    29    1
    26    29    30    1
    27    30    31    1
    28    10    11    1
    29     7     2   ar
    30    31    27    1
    31    11     4    1
    32    18    12   ar
    33    21    22    1
    34    21    23    1
@<TRIPOS>MOLECULE
*****
 31 34 0 0 0
SMALL
GASTEIGER

@<TRIPOS>ATOM
      1 C          63.8604   83.0423   14.7525 C.3     1  UNL1        0.0518
      2 C          63.6948   84.3975   14.1312 C.ar    1  UNL1        0.0563
      3 N          64.2754   85.6065   14.8030 N.ar    1  UNL1       -0.2524
      4 C          64.1099   86.9617   14.1817 C.ar    1  UNL1        0.0830
      5 C          63.3639   87.1080   12.8887 C.ar    1  UNL1        0.0686
      6 C          62.7833   85.8990   12.2169 C.ar    1  UNL1        0.0048
      7 C          62.9488   84.5438   12.8382 C.ar    1  UNL1        0.0072
      8 C          63.3612   88.5611   12.5168 C.2     1  UNL1        0.2509
      9 O          62.7257   89.1577   11.2961 O.2     1  UNL1       -0.2698
     10 N          64.1057   89.3130   13.5801 N.am    1  UNL1       -0.2620
     11 C          64.5684   88.3245   14.6091 C.3     1  UNL1        0.1401
     12 C          62.0371   86.0452   10.9238 C.ar    1  UNL1        0.0106
     13 C          60.7400   86.7977   10.8874 C.ar    1  UNL1        0.0017
     14 C          59.9939   86.9439    9.5944 C.ar    1  UNL1        0.0114
     15 C          60.5448   86.3377    8.3379 C.ar    1  UNL1        0.0585
     16 CL         59.7987   86.4839    7.0449 Cl      1  UNL1       -0.0822
     17 C          61.8419   85.5852    8.3743 C.ar    1  UNL1        0.0228
     18 C          62.5881   85.4390    9.6673 C.ar    1  UNL1        0.0585
     19 CL         63.8852   84.6865    9.7038 Cl      1  UNL1       -0.0822
     20 C          62.3682   83.3347   12.1664 C.3     1  UNL1        0.0934
     21 N          63.2672   82.2190   11.7228 N.3     1  UNL1       -0.3174
     22 H          63.8789   82.5512   10.9773 H       1  UNL1        0.1192
     23 H          62.7016   81.4432   11.3782 H       1  UNL1        0.1192
     24 C          64.3453   90.7934   13.6093 C.3     1  UNL1        0.1798
     25 C          64.7571   91.4615   14.8876 C.2     1  UNL1        0.2460
     26 O          63.7591   91.6478   15.9918 O.2     1  UNL1       -0.2730
     27 N          66.1669   91.9432   15.0618 N.am    1  UNL1       -0.2781
     28 C          67.2694   91.8273   14.0514 C.3     1  UNL1        0.0935
     29 C          68.5056   92.4379   14.6421 C.3     1  UNL1        0.0233
     30 C          68.1672   92.9312   16.0176 C.3     1  UNL1        0.0233
     31 C          66.7217   92.6254   16.2770 C.3     1  UNL1        0.0935
@<TRIPOS>BOND
     1     1     2    1
     2     2     3   ar
     3     3     4   ar
     4     4     5   ar
     5     5     6   ar
     6     6    12    1
     7    12    13   ar
     8    13    14   ar
     9    14    15   ar
    10    15    16    1
    11    15    17   ar
    12    17    18   ar
    13    18    19    1
    14     6     7   ar
    15     7    20    1
    16    20    21    1
    17     5     8    1
    18     8     9    2
    19     8    10   am
    20    10    24    1
    21    24    25    1
    22    25    26    2
    23    25    27   am
    24    27    28    1
    25    28    29    1
    26    29    30    1
    27    30    31    1
    28    10    11    1
    29     7     2   ar
    30    31    27    1
    31    11     4    1
    32    18    12   ar
    33    21    22    1
    34    21    23    1
@<TRIPOS>MOLECULE
*****
 31 34 0 0 0
SMALL
GASTEIGER

@<TRIPOS>ATOM
      1 C          59.6906   89.1487    7.8447 C.3     1  UNL1        0.0518
      2 C          60.5956   88.7937    8.9871 C.ar    1  UNL1        0.0563
      3 N          61.0777   89.8629    9.9222 N.ar    1  UNL1       -0.2524
      4 C          61.9826   89.5079   11.0646 C.ar    1  UNL1        0.0830
      5 C          62.4055   88.0838   11.2719 C.ar    1  UNL1        0.0686
      6 C          61.9234   87.0146   10.3369 C.ar    1  UNL1        0.0048
      7 C          61.0184   87.3696    9.1944 C.ar    1  UNL1        0.0072
      8 C          63.2977   88.0359   12.4767 C.2     1  UNL1        0.2509
      9 O          63.9473   86.8089   13.0445 O.2     1  UNL1       -0.2698
     10 N          63.4263   89.4304   13.0140 N.am    1  UNL1       -0.2620
     11 C          62.6135   90.3402   12.1413 C.3     1  UNL1        0.1401
     12 C          62.3462   85.5904   10.5441 C.ar    1  UNL1        0.0106
     13 C          61.9524   84.8659   11.7971 C.ar    1  UNL1        0.0017
     14 C          62.3751   83.4418   12.0045 C.ar    1  UNL1        0.0114
     15 C          63.1918   82.7421   10.9588 C.ar    1  UNL1        0.0585
     16 CL         63.6146   81.3179   11.1661 Cl      1  UNL1       -0.0822
     17 C          63.5856   83.4665    9.7058 C.ar    1  UNL1        0.0228
     18 C          63.1629   84.8907    9.4984 C.ar    1  UNL1        0.0585
     19 CL         63.5567   85.6151    8.2454 Cl      1  UNL1       -0.0822
     20 C          60.5363   86.3003    8.2593 C.3     1  UNL1        0.0934
     21 N          59.0855   86.2295    7.8851 N.3     1  UNL1       -0.3174
     22 H          58.5326   85.9968    8.7100 H       1  UNL1        0.1192
     23 H          58.9527   85.5114    7.1731 H       1  UNL1        0.1192
     24 C          64.2271   89.8428   14.2134 C.3     1  UNL1        0.1798
     25 C          63.6270   89.7474   15.5848 C.2     1  UNL1        0.2460
     26 O          63.1992   90.9919   16.3046 O.2     1  UNL1       -0.2730
     27 N          63.4547   88.4074   16.2365 N.am    1  UNL1       -0.2781
     28 C          63.8335   87.0830   15.6428 C.3     1  UNL1        0.0935
     29 C          63.4862   86.0136   16.6357 C.3     1  UNL1        0.0233
     30 C          62.8927   86.6770   17.8430 C.3     1  UNL1        0.0233
     31 C          62.8733   88.1565   17.5963 C.3     1  UNL1        0.0935
@<TRIPOS>BOND
     1     1     2    1
     2     2     3   ar
     3     3     4   ar
     4     4     5   ar
     5     5     6   ar
     6     6    12    1
     7    12    13   ar
     8    13    14   ar
     9    14    15   ar
    10    15    16    1
    11    15    17   ar
    12    17    18   ar
    13    18    19    1
    14     6     7   ar
    15     7    20    1
    16    20    21    1
    17     5     8    1
    18     8     9    2
    19     8    10   am
    20    10    24    1
    21    24    25    1
    22    25    26    2
    23    25    27   am
    24    27    28    1
    25    28    29    1
    26    29    30    1
    27    30    31    1
    28    10    11    1
    29     7     2   ar
    30    31    27    1
    31    11     4    1
    32    18    12   ar
    33    21    22    1
    34    21    23    1
@<TRIPOS>MOLECULE
*****
 31 34 0 0 0
SMALL
GASTEIGER

@<TRIPOS>ATOM
      1 C          63.7797   83.6099   15.0918 C.3     1  UNL1        0.0518
      2 C          63.6014   84.8321   14.2404 C.ar    1  UNL1        0.0563
      3 N          63.9163   86.1879   14.7994 N.ar    1  UNL1       -0.2524
      4 C          63.7381   87.4100   13.9481 C.ar    1  UNL1        0.0830
      5 C          63.2449   87.2762   12.5379 C.ar    1  UNL1        0.0686
      6 C          62.9300   85.9204   11.9789 C.ar    1  UNL1        0.0048
      7 C          63.1083   84.6983   12.8303 C.ar    1  UNL1        0.0072
      8 C          63.1676   88.6504   11.9415 C.2     1  UNL1        0.2509
      9 O          62.7229   88.9831   10.5481 O.2     1  UNL1       -0.2698
     10 N          63.6129   89.6335   12.9833 N.am    1  UNL1       -0.2620
     11 C          63.9656   88.8669   14.2234 C.3     1  UNL1        0.1401
     12 C          62.4368   85.7865   10.5686 C.ar    1  UNL1        0.0106
     13 C          63.2827   85.0952    9.5407 C.ar    1  UNL1        0.0017
     14 C          62.7896   84.9613    8.1304 C.ar    1  UNL1        0.0114
     15 C          61.4506   85.5188    7.7480 C.ar    1  UNL1        0.0585
     16 CL         60.9575   85.3849    6.3377 Cl      1  UNL1       -0.0822
     17 C          60.6047   86.2102    8.7759 C.ar    1  UNL1        0.0228
     18 C          61.0978   86.3441   10.1862 C.ar    1  UNL1        0.0585
     19 CL         60.2519   87.0354   11.2140 Cl      1  UNL1       -0.0822
     20 C          62.7933   83.3423   12.2712 C.3     1  UNL1        0.0934
     21 N          63.9025   82.4494   11.7996 N.3     1  UNL1       -0.3174
     22 H          64.3540   82.8685   10.9867 H       1  UNL1        0.1192
     23 H          63.5206   81.5386   11.5446 H       1  UNL1        0.1192
     24 C          63.6919   91.1218   12.8145 C.3     1  UNL1        0.1798
     25 C          64.9787   91.8409   13.0921 C.2     1  UNL1        0.2460
     26 O          65.6128   91.7474   14.4482 O.2     1  UNL1       -0.2730
     27 N          65.6314   92.6537   12.0134 N.am    1  UNL1       -0.2781
     28 C          65.1179   92.8392   10.6164 C.3     1  UNL1        0.0935
     29 C          66.0814   93.7237    9.8820 C.3     1  UNL1        0.0233
     30 C          67.1904   94.0849   10.8251 C.3     1  UNL1        0.0233
     31 C          66.9122   93.4235   12.1425 C.3     1  UNL1        0.0935
@<TRIPOS>BOND
     1     1     2    1
     2     2     3   ar
     3     3     4   ar
     4     4     5   ar
     5     5     6   ar
     6     6    12    1
     7    12    13   ar
     8    13    14   ar
     9    14    15   ar
    10    15    16    1
    11    15    17   ar
    12    17    18   ar
    13    18    19    1
    14     6     7   ar
    15     7    20    1
    16    20    21    1
    17     5     8    1
    18     8     9    2
    19     8    10   am
    20    10    24    1
    21    24    25    1
    22    25    26    2
    23    25    27   am
    24    27    28    1
    25    28    29    1
    26    29    30    1
    27    30    31    1
    28    10    11    1
    29     7     2   ar
    30    31    27    1
    31    11     4    1
    32    18    12   ar
    33    21    22    1
    34    21    23    1
@<TRIPOS>MOLECULE
*****
 31 34 0 0 0
SMALL
GASTEIGER

@<TRIPOS>ATOM
      1 C          63.2271   92.4440    2.6200 C.3     1  UNL1        0.0518
      2 C          62.5567   92.7589    1.3155 C.ar    1  UNL1        0.0563
      3 N          61.1427   92.3205    1.0741 N.ar    1  UNL1       -0.2524
      4 C          60.4723   92.6353   -0.2303 C.ar    1  UNL1        0.0830
      5 C          61.2159   93.3885   -1.2932 C.ar    1  UNL1        0.0686
      6 C          62.6299   93.8269   -1.0517 C.ar    1  UNL1        0.0048
      7 C          63.3003   93.5120    0.2527 C.ar    1  UNL1        0.0072
      8 C          60.3012   93.5534   -2.4705 C.2     1  UNL1        0.2509
      9 O          60.6365   94.2477   -3.7572 O.2     1  UNL1       -0.2698
     10 N          58.9922   92.9021   -2.1352 N.am    1  UNL1       -0.2620
     11 C          59.0979   92.3347   -0.7507 C.3     1  UNL1        0.1401
     12 C          63.3736   94.5801   -2.1146 C.ar    1  UNL1        0.0106
     13 C          63.4657   96.0758   -2.0486 C.ar    1  UNL1        0.0017
     14 C          64.2094   96.8291   -3.1114 C.ar    1  UNL1        0.0114
     15 C          64.8609   96.0865   -4.2402 C.ar    1  UNL1        0.0585
     16 CL         65.6046   96.8398   -5.3030 Cl      1  UNL1       -0.0822
     17 C          64.7689   94.5908   -4.3062 C.ar    1  UNL1        0.0228
     18 C          64.0252   93.8376   -3.2433 C.ar    1  UNL1        0.0585
     19 CL         63.9331   92.3419   -3.3093 Cl      1  UNL1       -0.0822
     20 C          64.7144   93.9504    0.4942 C.3     1  UNL1        0.0934
     21 N          65.8241   92.9412    0.4871 N.3     1  UNL1       -0.3174
     22 H          65.7071   92.3017    1.2730 H       1  UNL1        0.1192
     23 H          66.7205   93.4209    0.5696 H       1  UNL1        0.1192
     24 C          57.7887   92.8308   -3.0278 C.3     1  UNL1        0.1798
     25 C          56.4169   93.0281   -2.4542 C.2     1  UNL1        0.2460
     26 O          55.6133   91.8432   -2.0070 O.2     1  UNL1       -0.2730
     27 N          55.8486   94.4106   -2.3279 N.am    1  UNL1       -0.2781
     28 C          56.5306   95.6844   -2.7304 C.3     1  UNL1        0.0935
     29 C          55.6020   96.8229   -2.4281 C.3     1  UNL1        0.0233
     30 C          54.3460   96.2528   -1.8388 C.3     1  UNL1        0.0233
     31 C          54.4984   94.7618   -1.7768 C.3     1  UNL1        0.0935
@<TRIPOS>BOND
     1     1     2    1
     2     2     3   ar
     3     3     4   ar
     4     4     5   ar
     5     5     6   ar
     6     6    12    1
     7    12    13   ar
     8    13    14   ar
     9    14    15   ar
    10    15    16    1
    11    15    17   ar
    12    17    18   ar
    13    18    19    1
    14     6     7   ar
    15     7    20    1
    16    20    21    1
    17     5     8    1
    18     8     9    2
    19     8    10   am
    20    10    24    1
    21    24    25    1
    22    25    26    2
    23    25    27   am
    24    27    28    1
    25    28    29    1
    26    29    30    1
    27    30    31    1
    28    10    11    1
    29     7     2   ar
    30    31    27    1
    31    11     4    1
    32    18    12   ar
    33    21    22    1
    34    21    23    1
@<TRIPOS>MOLECULE
*****
 31 34 0 0 0
SMALL
GASTEIGER

@<TRIPOS>ATOM
      1 C          59.1645   88.9725    7.0730 C.3     1  UNL1        0.0518
      2 C          60.0789   88.8350    8.2542 C.ar    1  UNL1        0.0563
      3 N          60.3446   90.0171    9.1385 N.ar    1  UNL1       -0.2524
      4 C          61.2589   89.8796   10.3197 C.ar    1  UNL1        0.0830
      5 C          61.9075   88.5601   10.6165 C.ar    1  UNL1        0.0686
      6 C          61.6418   87.3780    9.7322 C.ar    1  UNL1        0.0048
      7 C          60.7275   87.5155    8.5510 C.ar    1  UNL1        0.0072
      8 C          62.7559   88.7259   11.8424 C.2     1  UNL1        0.2509
      9 O          63.5833   87.6573   12.4931 O.2     1  UNL1       -0.2698
     10 N          62.6316   90.1479   12.3032 N.am    1  UNL1       -0.2620
     11 C          61.7064   90.8610   11.3621 C.3     1  UNL1        0.1401
     12 C          62.2904   86.0584   10.0289 C.ar    1  UNL1        0.0106
     13 C          63.2019   85.4268    9.0189 C.ar    1  UNL1        0.0017
     14 C          63.8505   84.1072    9.3155 C.ar    1  UNL1        0.0114
     15 C          63.5876   83.4193   10.6223 C.ar    1  UNL1        0.0585
     16 CL         64.2362   82.0997   10.9189 Cl      1  UNL1       -0.0822
     17 C          62.6761   84.0509   11.6323 C.ar    1  UNL1        0.0228
     18 C          62.0275   85.3705   11.3357 C.ar    1  UNL1        0.0585
     19 CL         61.1160   86.0021   12.3457 Cl      1  UNL1       -0.0822
     20 C          60.4617   86.3334    7.6666 C.3     1  UNL1        0.0934
     21 N          59.0563   85.8511    7.4615 N.3     1  UNL1       -0.3174
     22 H          58.6883   85.4915    8.3422 H       1  UNL1        0.1192
     23 H          59.0503   85.1086    6.7621 H       1  UNL1        0.1192
     24 C          63.3129   90.7510   13.4957 C.3     1  UNL1        0.1798
     25 C          64.7932   90.9921   13.4714 C.2     1  UNL1        0.2460
     26 O          65.6666   90.4037   14.5396 O.2     1  UNL1       -0.2730
     27 N          65.4001   91.8217   12.3790 N.am    1  UNL1       -0.2781
     28 C          64.6576   92.4716   11.2493 C.3     1  UNL1        0.0935
     29 C          65.6547   93.1986   10.3966 C.3     1  UNL1        0.0233
     30 C          67.0136   92.9981   10.9992 C.3     1  UNL1        0.0233
     31 C          66.8562   92.1471   12.2245 C.3     1  UNL1        0.0935
@<TRIPOS>BOND
     1     1     2    1
     2     2     3   ar
     3     3     4   ar
     4     4     5   ar
     5     5     6   ar
     6     6    12    1
     7    12    13   ar
     8    13    14   ar
     9    14    15   ar
    10    15    16    1
    11    15    17   ar
    12    17    18   ar
    13    18    19    1
    14     6     7   ar
    15     7    20    1
    16    20    21    1
    17     5     8    1
    18     8     9    2
    19     8    10   am
    20    10    24    1
    21    24    25    1
    22    25    26    2
    23    25    27   am
    24    27    28    1
    25    28    29    1
    26    29    30    1
    27    30    31    1
    28    10    11    1
    29     7     2   ar
    30    31    27    1
    31    11     4    1
    32    18    12   ar
    33    21    22    1
    34    21    23    1
@<TRIPOS>MOLECULE
*****
 31 34 0 0 0
SMALL
GASTEIGER

@<TRIPOS>ATOM
      1 C          63.1307   91.7553    2.9881 C.3     1  UNL1        0.0518
      2 C          62.4300   92.4056    1.8321 C.ar    1  UNL1        0.0563
      3 N          60.9321   92.3842    1.7549 N.ar    1  UNL1       -0.2524
      4 C          60.2314   93.0344    0.5989 C.ar    1  UNL1        0.0830
      5 C          61.0285   93.7061   -0.4797 C.ar    1  UNL1        0.0686
      6 C          62.5263   93.7275   -0.4025 C.ar    1  UNL1        0.0048
      7 C          63.2270   93.0772    0.7535 C.ar    1  UNL1        0.0072
      8 C          60.0676   94.2589   -1.4902 C.2     1  UNL1        0.2509
      9 O          60.4335   95.0099   -2.7361 O.2     1  UNL1       -0.2698
     10 N          58.6766   93.9290   -1.0360 N.am    1  UNL1       -0.2620
     11 C          58.7778   93.1722    0.2551 C.3     1  UNL1        0.1401
     12 C          63.3235   94.3991   -1.4812 C.ar    1  UNL1        0.0106
     13 C          63.6929   93.6421   -2.7223 C.ar    1  UNL1        0.0017
     14 C          64.4901   94.3136   -3.8010 C.ar    1  UNL1        0.0114
     15 C          64.9179   95.7421   -3.6384 C.ar    1  UNL1        0.0585
     16 CL         65.7151   96.4136   -4.7171 Cl      1  UNL1       -0.0822
     17 C          64.5485   96.4991   -2.3973 C.ar    1  UNL1        0.0228
     18 C          63.7513   95.8275   -1.3186 C.ar    1  UNL1        0.0585
     19 CL         63.3819   96.5845   -0.0774 Cl      1  UNL1       -0.0822
     20 C          64.7250   93.0985    0.8308 C.3     1  UNL1        0.0934
     21 N          65.4115   93.9698    1.8405 N.3     1  UNL1       -0.3174
     22 H          65.2381   94.9499    1.6178 H       1  UNL1        0.1192
     23 H          66.4151   93.7887    1.8194 H       1  UNL1        0.1192
     24 C          57.4073   94.2920   -1.7480 C.3     1  UNL1        0.1798
     25 C          56.5998   93.2283   -2.4310 C.2     1  UNL1        0.2460
     26 O          55.5810   92.4464   -1.6561 O.2     1  UNL1       -0.2730
     27 N          56.8113   92.9465   -3.8891 N.am    1  UNL1       -0.2781
     28 C          57.7886   93.6429   -4.7890 C.3     1  UNL1        0.0935
     29 C          57.6639   93.0455   -6.1593 C.3     1  UNL1        0.0233
     30 C          56.6095   91.9800   -6.1063 C.3     1  UNL1        0.0233
     31 C          56.0826   91.9188   -4.7031 C.3     1  UNL1        0.0935
@<TRIPOS>BOND
     1     1     2    1
     2     2     3   ar
     3     3     4   ar
     4     4     5   ar
     5     5     6   ar
     6     6    12    1
     7    12    13   ar
     8    13    14   ar
     9    14    15   ar
    10    15    16    1
    11    15    17   ar
    12    17    18   ar
    13    18    19    1
    14     6     7   ar
    15     7    20    1
    16    20    21    1
    17     5     8    1
    18     8     9    2
    19     8    10   am
    20    10    24    1
    21    24    25    1
    22    25    26    2
    23    25    27   am
    24    27    28    1
    25    28    29    1
    26    29    30    1
    27    30    31    1
    28    10    11    1
    29     7     2   ar
    30    31    27    1
    31    11     4    1
    32    18    12   ar
    33    21    22    1
    34    21    23    1
@<TRIPOS>MOLECULE
*****
 31 34 0 0 0
SMALL
GASTEIGER

@<TRIPOS>ATOM
      1 C          59.9907   88.8867    8.4505 C.3     1  UNL1        0.0518
      2 C          60.9143   88.5209    9.5745 C.ar    1  UNL1        0.0563
      3 N          61.4415   89.5866   10.4890 N.ar    1  UNL1       -0.2524
      4 C          62.3651   89.2209   11.6129 C.ar    1  UNL1        0.0830
      5 C          62.7615   87.7894   11.8223 C.ar    1  UNL1        0.0686
      6 C          62.2343   86.7237   10.9079 C.ar    1  UNL1        0.0048
      7 C          61.3107   87.0895    9.7839 C.ar    1  UNL1        0.0072
      8 C          63.6807   87.7314   13.0063 C.2     1  UNL1        0.2509
      9 O          64.3165   86.4949   13.5692 O.2     1  UNL1       -0.2698
     10 N          63.8523   89.1270   13.5286 N.am    1  UNL1       -0.2620
     11 C          63.0393   90.0476   12.6674 C.3     1  UNL1        0.1401
     12 C          62.6307   85.2922   11.1172 C.ar    1  UNL1        0.0106
     13 C          63.3990   84.5637   10.0547 C.ar    1  UNL1        0.0017
     14 C          63.7954   83.1322   10.2640 C.ar    1  UNL1        0.0114
     15 C          63.4234   82.4294   11.5358 C.ar    1  UNL1        0.0585
     16 CL         63.8198   80.9979   11.7451 Cl      1  UNL1       -0.0822
     17 C          62.6551   83.1579   12.5983 C.ar    1  UNL1        0.0228
     18 C          62.2587   84.5894   12.3891 C.ar    1  UNL1        0.0585
     19 CL         61.4904   85.3179   13.4516 Cl      1  UNL1       -0.0822
     20 C          60.7834   86.0238    8.8694 C.3     1  UNL1        0.0934
     21 N          61.4489   85.7721    7.5488 N.3     1  UNL1       -0.3174
     22 H          61.3300   86.5873    6.9474 H       1  UNL1        0.1192
     23 H          61.0257   84.9572    7.1047 H       1  UNL1        0.1192
     24 C          64.6899   89.5312   14.7055 C.3     1  UNL1        0.1798
     25 C          64.7340   90.9671   15.1370 C.2     1  UNL1        0.2460
     26 O          63.4897   91.6381   15.6383 O.2     1  UNL1       -0.2730
     27 N          66.0225   91.7320   15.0671 N.am    1  UNL1       -0.2781
     28 C          67.3404   91.1975   14.5904 C.3     1  UNL1        0.0935
     29 C          68.3516   92.3009   14.6904 C.3     1  UNL1        0.0233
     30 C          67.6587   93.5173   15.2289 C.3     1  UNL1        0.0233
     31 C          66.2191   93.1657   15.4617 C.3     1  UNL1        0.0935
@<TRIPOS>BOND
     1     1     2    1
     2     2     3   ar
     3     3     4   ar
     4     4     5   ar
     5     5     6   ar
     6     6    12    1
     7    12    13   ar
     8    13    14   ar
     9    14    15   ar
    10    15    16    1
    11    15    17   ar
    12    17    18   ar
    13    18    19    1
    14     6     7   ar
    15     7    20    1
    16    20    21    1
    17     5     8    1
    18     8     9    2
    19     8    10   am
    20    10    24    1
    21    24    25    1
    22    25    26    2
    23    25    27   am
    24    27    28    1
    25    28    29    1
    26    29    30    1
    27    30    31    1
    28    10    11    1
    29     7     2   ar
    30    31    27    1
    31    11     4    1
    32    18    12   ar
    33    21    22    1
    34    21    23    1
