@<TRIPOS>MOLECULE
*****
 23 25 0 0 0
SMALL
GASTEIGER

@<TRIPOS>ATOM
      1 O          63.7225   91.6741   10.8961 O.2     1  UNL1       -0.2907
      2 C          64.3227   91.4197   12.2470 C.2     1  UNL1        0.1819
      3 C          63.9060   90.2153   13.0381 C.3     1  UNL1        0.0746
      4 C          64.5062   89.9608   14.3890 C.3     1  UNL1        0.0375
      5 C          65.5231   90.9107   14.9489 C.3     1  UNL1        0.0690
      6 C          65.9399   92.1150   14.1578 C.2     1  UNL1        0.1201
      7 O          66.9569   93.0649   14.7177 O.2     1  UNL1       -0.5092
      8 C          65.3397   92.3695   12.8069 C.2     1  UNL1        0.0936
      9 H          67.3319   92.9060   15.5616 H       1  UNL1        0.2917
     10 C          64.0893   88.7564   15.1801 C.ar    1  UNL1       -0.0216
     11 C          63.3040   88.9261   16.4468 C.ar    1  UNL1       -0.0043
     12 C          62.8872   87.7218   17.2378 C.ar    1  UNL1       -0.0003
     13 C          63.2557   86.3477   16.7622 C.ar    1  UNL1       -0.0000
     14 C          64.0410   86.1780   15.4955 C.ar    1  UNL1       -0.0003
     15 C          64.4578   87.3824   14.7045 C.ar    1  UNL1       -0.0043
     16 S          65.7565   93.5739   12.0158 S.3     1  UNL1       -0.0806
     17 C          66.6686   93.4170   10.8354 C.ar    1  UNL1        0.0402
     18 C          67.5074   92.1813   10.6947 C.ar    1  UNL1        0.0073
     19 C          68.4195   92.0244    9.5142 C.ar    1  UNL1        0.0006
     20 C          68.4928   93.1031    8.4744 C.ar    1  UNL1        0.0009
     21 C          67.6540   94.3387    8.6152 C.ar    1  UNL1        0.0119
     22 C          66.7420   94.4956    9.7956 C.ar    1  UNL1        0.0636
     23 CL         65.9032   95.7313    9.9363 Cl      1  UNL1       -0.0817
@<TRIPOS>BOND
     1     1     2    2
     2     2     3    1
     3     3     4    1
     4     4    10    1
     5    10    11   ar
     6    11    12   ar
     7    12    13   ar
     8    13    14   ar
     9    14    15   ar
    10     4     5    1
    11     5     6    1
    12     6     7    1
    13     6     8    2
    14     8    16    1
    15    16    17    1
    16    17    18   ar
    17    18    19   ar
    18    19    20   ar
    19    20    21   ar
    20    21    22   ar
    21    22    23    1
    22     8     2    1
    23    22    17   ar
    24    15    10   ar
    25     7     9    1
@<TRIPOS>MOLECULE
*****
 23 25 0 0 0
SMALL
GASTEIGER

@<TRIPOS>ATOM
      1 O          62.7855   86.4944   12.5897 O.2     1  UNL1       -0.2907
      2 C          62.7507   87.9100   12.0950 C.2     1  UNL1        0.1819
      3 C          63.6903   88.9285   12.6692 C.3     1  UNL1        0.0746
      4 C          63.6555   90.3441   12.1744 C.3     1  UNL1        0.0375
      5 C          62.6811   90.7413   11.1055 C.3     1  UNL1        0.0690
      6 C          61.7414   89.7228   10.5314 C.2     1  UNL1        0.1201
      7 O          60.7669   90.1200    9.4624 O.2     1  UNL1       -0.5092
      8 C          61.7762   88.3072   11.0261 C.2     1  UNL1        0.0936
      9 H          60.7451   91.0043    9.1533 H       1  UNL1        0.2917
     10 C          64.5952   91.3626   12.7487 C.ar    1  UNL1       -0.0216
     11 C          65.1172   92.4725   11.8851 C.ar    1  UNL1       -0.0043
     12 C          66.0569   93.4909   12.4593 C.ar    1  UNL1       -0.0003
     13 C          66.4746   93.3996   13.8971 C.ar    1  UNL1       -0.0000
     14 C          65.9526   92.2898   14.7607 C.ar    1  UNL1       -0.0003
     15 C          65.0129   91.2713   14.1864 C.ar    1  UNL1       -0.0043
     16 S          60.8365   87.2887   10.4518 S.3     1  UNL1       -0.0806
     17 C          61.2443   86.4833    9.2539 C.ar    1  UNL1        0.0402
     18 C          62.6157   85.8791    9.1879 C.ar    1  UNL1        0.0073
     19 C          63.0234   85.0737    7.9899 C.ar    1  UNL1        0.0006
     20 C          62.0598   84.8725    6.8580 C.ar    1  UNL1        0.0009
     21 C          60.6885   85.4767    6.9241 C.ar    1  UNL1        0.0119
     22 C          60.2808   86.2821    8.1221 C.ar    1  UNL1        0.0636
     23 CL         58.9094   86.8864    8.1881 Cl      1  UNL1       -0.0817
@<TRIPOS>BOND
     1     1     2    2
     2     2     3    1
     3     3     4    1
     4     4    10    1
     5    10    11   ar
     6    11    12   ar
     7    12    13   ar
     8    13    14   ar
     9    14    15   ar
    10     4     5    1
    11     5     6    1
    12     6     7    1
    13     6     8    2
    14     8    16    1
    15    16    17    1
    16    17    18   ar
    17    18    19   ar
    18    19    20   ar
    19    20    21   ar
    20    21    22   ar
    21    22    23    1
    22     8     2    1
    23    22    17   ar
    24    15    10   ar
    25     7     9    1
@<TRIPOS>MOLECULE
*****
 23 25 0 0 0
SMALL
GASTEIGER

@<TRIPOS>ATOM
      1 O          60.7259   89.9268    9.7161 O.2     1  UNL1       -0.2907
      2 C          61.7273   89.5318   10.7607 C.2     1  UNL1        0.1819
      3 C          62.6480   90.5619   11.3446 C.3     1  UNL1        0.0746
      4 C          63.6494   90.1669   12.3892 C.3     1  UNL1        0.0375
      5 C          63.7301   88.7417   12.8499 C.3     1  UNL1        0.0690
      6 C          62.8094   87.7116   12.2660 C.2     1  UNL1        0.1201
      7 O          62.8900   86.2863   12.7266 O.2     1  UNL1       -0.5092
      8 C          61.8080   88.1066   11.2214 C.2     1  UNL1        0.0936
      9 H          63.5156   86.0395   13.3791 H       1  UNL1        0.2917
     10 C          64.5701   91.1972   12.9731 C.ar    1  UNL1       -0.0216
     11 C          65.0844   92.3154   12.1158 C.ar    1  UNL1       -0.0043
     12 C          66.0051   93.3457   12.6997 C.ar    1  UNL1       -0.0003
     13 C          66.4116   93.2576   14.1409 C.ar    1  UNL1       -0.0000
     14 C          65.8973   92.1394   14.9982 C.ar    1  UNL1       -0.0003
     15 C          64.9766   91.1091   14.4143 C.ar    1  UNL1       -0.0043
     16 S          60.8872   87.0763   10.6374 S.3     1  UNL1       -0.0806
     17 C          61.2760   86.3461    9.3862 C.ar    1  UNL1        0.0402
     18 C          62.6240   85.6957    9.2855 C.ar    1  UNL1        0.0073
     19 C          63.0128   84.9654    8.0343 C.ar    1  UNL1        0.0006
     20 C          62.0536   84.8856    6.8837 C.ar    1  UNL1        0.0009
     21 C          60.7057   85.5360    6.9845 C.ar    1  UNL1        0.0119
     22 C          60.3169   86.2662    8.2357 C.ar    1  UNL1        0.0636
     23 CL         58.9690   86.9166    8.3364 Cl      1  UNL1       -0.0817
@<TRIPOS>BOND
     1     1     2    2
     2     2     3    1
     3     3     4    1
     4     4    10    1
     5    10    11   ar
     6    11    12   ar
     7    12    13   ar
     8    13    14   ar
     9    14    15   ar
    10     4     5    1
    11     5     6    1
    12     6     7    1
    13     6     8    2
    14     8    16    1
    15    16    17    1
    16    17    18   ar
    17    18    19   ar
    18    19    20   ar
    19    20    21   ar
    20    21    22   ar
    21    22    23    1
    22     8     2    1
    23    22    17   ar
    24    15    10   ar
    25     7     9    1
@<TRIPOS>MOLECULE
*****
 23 25 0 0 0
SMALL
GASTEIGER

@<TRIPOS>ATOM
      1 O          62.1132   89.4512   14.7178 O.2     1  UNL1       -0.2907
      2 C          63.0943   90.2164   13.8800 C.2     1  UNL1        0.1819
      3 C          64.3535   90.7484   14.4976 C.3     1  UNL1        0.0746
      4 C          65.3346   91.5136   13.6598 C.3     1  UNL1        0.0375
      5 C          65.0566   91.7468   12.2044 C.3     1  UNL1        0.0690
      6 C          63.7974   91.2148   11.5868 C.2     1  UNL1        0.1201
      7 O          63.5194   91.4479   10.1313 O.2     1  UNL1       -0.5092
      8 C          62.8163   90.4496   12.4246 C.2     1  UNL1        0.0936
      9 H          64.1322   91.9259    9.6079 H       1  UNL1        0.2917
     10 C          66.5937   92.0457   14.2775 C.ar    1  UNL1       -0.0216
     11 C          66.5356   92.7819   15.5831 C.ar    1  UNL1       -0.0043
     12 C          67.7947   93.3139   16.2008 C.ar    1  UNL1       -0.0003
     13 C          69.1120   93.1097   15.5129 C.ar    1  UNL1       -0.0000
     14 C          69.1701   92.3735   14.2073 C.ar    1  UNL1       -0.0003
     15 C          67.9109   91.8415   13.5896 C.ar    1  UNL1       -0.0043
     16 S          61.5571   89.9175   11.8069 S.3     1  UNL1       -0.0806
     17 C          61.5795   88.6165   11.0606 C.ar    1  UNL1        0.0402
     18 C          62.3505   87.4516   11.6071 C.ar    1  UNL1        0.0073
     19 C          62.3728   86.1506   10.8608 C.ar    1  UNL1        0.0006
     20 C          61.6242   86.0145    9.5681 C.ar    1  UNL1        0.0009
     21 C          60.8533   87.1794    9.0216 C.ar    1  UNL1        0.0119
     22 C          60.8310   88.4804    9.7679 C.ar    1  UNL1        0.0636
     23 CL         60.0600   89.6454    9.2214 Cl      1  UNL1       -0.0817
@<TRIPOS>BOND
     1     1     2    2
     2     2     3    1
     3     3     4    1
     4     4    10    1
     5    10    11   ar
     6    11    12   ar
     7    12    13   ar
     8    13    14   ar
     9    14    15   ar
    10     4     5    1
    11     5     6    1
    12     6     7    1
    13     6     8    2
    14     8    16    1
    15    16    17    1
    16    17    18   ar
    17    18    19   ar
    18    19    20   ar
    19    20    21   ar
    20    21    22   ar
    21    22    23    1
    22     8     2    1
    23    22    17   ar
    24    15    10   ar
    25     7     9    1
@<TRIPOS>MOLECULE
*****
 23 25 0 0 0
SMALL
GASTEIGER

@<TRIPOS>ATOM
      1 O          63.5684   91.4959   10.0498 O.2     1  UNL1       -0.2907
      2 C          63.8264   91.2545   11.5076 C.2     1  UNL1        0.1819
      3 C          65.0773   91.7822   12.1453 C.3     1  UNL1        0.0746
      4 C          65.3354   91.5408   13.6031 C.3     1  UNL1        0.0375
      5 C          64.3425   90.7717   14.4232 C.3     1  UNL1        0.0690
      6 C          63.0916   90.2440   13.7855 C.2     1  UNL1        0.1201
      7 O          62.0986   89.4748   14.6056 O.2     1  UNL1       -0.5092
      8 C          62.8335   90.4854   12.3277 C.2     1  UNL1        0.0936
      9 H          62.2597   89.3240   15.5162 H       1  UNL1        0.2917
     10 C          66.5864   92.0685   14.2408 C.ar    1  UNL1       -0.0216
     11 C          67.9170   91.8329   13.5897 C.ar    1  UNL1       -0.0043
     12 C          69.1679   92.3606   14.2273 C.ar    1  UNL1       -0.0003
     13 C          69.0883   93.1240   15.5161 C.ar    1  UNL1       -0.0000
     14 C          67.7577   93.3596   16.1673 C.ar    1  UNL1       -0.0003
     15 C          66.5067   92.8319   15.5296 C.ar    1  UNL1       -0.0043
     16 S          61.5826   89.9576   11.6900 S.3     1  UNL1       -0.0806
     17 C          61.5962   88.6248   11.0021 C.ar    1  UNL1        0.0402
     18 C          62.3587   87.4798   11.6002 C.ar    1  UNL1        0.0073
     19 C          62.3724   86.1470   10.9123 C.ar    1  UNL1        0.0006
     20 C          61.6236   85.9591    9.6261 C.ar    1  UNL1        0.0009
     21 C          60.8612   87.1040    9.0280 C.ar    1  UNL1        0.0119
     22 C          60.8475   88.4368    9.7160 C.ar    1  UNL1        0.0636
     23 CL         60.0850   89.5818    9.1178 Cl      1  UNL1       -0.0817
@<TRIPOS>BOND
     1     1     2    2
     2     2     3    1
     3     3     4    1
     4     4    10    1
     5    10    11   ar
     6    11    12   ar
     7    12    13   ar
     8    13    14   ar
     9    14    15   ar
    10     4     5    1
    11     5     6    1
    12     6     7    1
    13     6     8    2
    14     8    16    1
    15    16    17    1
    16    17    18   ar
    17    18    19   ar
    18    19    20   ar
    19    20    21   ar
    20    21    22   ar
    21    22    23    1
    22     8     2    1
    23    22    17   ar
    24    15    10   ar
    25     7     9    1
@<TRIPOS>MOLECULE
*****
 23 25 0 0 0
SMALL
GASTEIGER

@<TRIPOS>ATOM
      1 O          63.4478   88.3822   13.7687 O.2     1  UNL1       -0.2907
      2 C          63.1058   88.7341   12.3512 C.2     1  UNL1        0.1819
      3 C          62.7109   87.6566   11.3853 C.3     1  UNL1        0.0746
      4 C          62.3689   88.0085    9.9679 C.3     1  UNL1        0.0375
      5 C          62.4218   89.4379    9.5163 C.3     1  UNL1        0.0690
      6 C          62.8166   90.5154   10.4822 C.2     1  UNL1        0.1201
      7 O          62.8695   91.9449   10.0307 O.2     1  UNL1       -0.5092
      8 C          63.1587   90.1635   11.8997 C.2     1  UNL1        0.0936
      9 H          62.6559   92.1648    9.1452 H       1  UNL1        0.2917
     10 C          61.9740   86.9309    9.0019 C.ar    1  UNL1       -0.0216
     11 C          60.5731   86.8787    8.4682 C.ar    1  UNL1       -0.0043
     12 C          60.1782   85.8012    7.5024 C.ar    1  UNL1       -0.0003
     13 C          61.1842   84.7758    7.0701 C.ar    1  UNL1       -0.0000
     14 C          62.5851   84.8281    7.6038 C.ar    1  UNL1       -0.0003
     15 C          62.9800   85.9057    8.5698 C.ar    1  UNL1       -0.0043
     16 S          63.5535   91.2411   12.8656 S.3     1  UNL1       -0.0806
     17 C          65.0032   91.4912   13.1586 C.ar    1  UNL1        0.0402
     18 C          65.9245   91.9354   12.0613 C.ar    1  UNL1        0.0073
     19 C          67.3742   92.1854   12.3543 C.ar    1  UNL1        0.0006
     20 C          67.9026   91.9913   13.7447 C.ar    1  UNL1        0.0009
     21 C          66.9814   91.5472   14.8420 C.ar    1  UNL1        0.0119
     22 C          65.5317   91.2971   14.5490 C.ar    1  UNL1        0.0636
     23 CL         64.6105   90.8529   15.6463 Cl      1  UNL1       -0.0817
@<TRIPOS>BOND
     1     1     2    2
     2     2     3    1
     3     3     4    1
     4     4    10    1
     5    10    11   ar
     6    11    12   ar
     7    12    13   ar
     8    13    14   ar
     9    14    15   ar
    10     4     5    1
    11     5     6    1
    12     6     7    1
    13     6     8    2
    14     8    16    1
    15    16    17    1
    16    17    18   ar
    17    18    19   ar
    18    19    20   ar
    19    20    21   ar
    20    21    22   ar
    21    22    23    1
    22     8     2    1
    23    22    17   ar
    24    15    10   ar
    25     7     9    1
@<TRIPOS>MOLECULE
*****
 23 25 0 0 0
SMALL
GASTEIGER

@<TRIPOS>ATOM
      1 O          61.2984   89.0493    9.2887 O.2     1  UNL1       -0.2907
      2 C          62.2493   89.2510   10.4312 C.2     1  UNL1        0.1819
      3 C          63.0295   90.5273   10.5412 C.3     1  UNL1        0.0746
      4 C          63.9804   90.7290   11.6836 C.3     1  UNL1        0.0375
      5 C          64.1511   89.6544   12.7161 C.3     1  UNL1        0.0690
      6 C          63.3708   88.3780   12.6060 C.2     1  UNL1        0.1201
      7 O          63.5415   87.3033   13.6385 O.2     1  UNL1       -0.5092
      8 C          62.4200   88.1763   11.4636 C.2     1  UNL1        0.0936
      9 H          64.1354   87.4293   14.3522 H       1  UNL1        0.2917
     10 C          64.7607   92.0055   11.7936 C.ar    1  UNL1       -0.0216
     11 C          64.8468   92.9353   10.6197 C.ar    1  UNL1       -0.0043
     12 C          65.6270   94.2117   10.7296 C.ar    1  UNL1       -0.0003
     13 C          66.3211   94.5583   12.0135 C.ar    1  UNL1       -0.0000
     14 C          66.2349   93.6284   13.1874 C.ar    1  UNL1       -0.0003
     15 C          65.4547   92.3520   13.0774 C.ar    1  UNL1       -0.0043
     16 S          61.6397   86.8999   11.3536 S.3     1  UNL1       -0.0806
     17 C          62.3555   85.5997   11.1364 C.ar    1  UNL1        0.0402
     18 C          62.6189   84.6856   12.2962 C.ar    1  UNL1        0.0073
     19 C          63.3346   83.3855   12.0790 C.ar    1  UNL1        0.0006
     20 C          63.7871   82.9994   10.7019 C.ar    1  UNL1        0.0009
     21 C          63.5237   83.9134    9.5421 C.ar    1  UNL1        0.0119
     22 C          62.8079   85.2136    9.7594 C.ar    1  UNL1        0.0636
     23 CL         62.5445   86.1277    8.5995 Cl      1  UNL1       -0.0817
@<TRIPOS>BOND
     1     1     2    2
     2     2     3    1
     3     3     4    1
     4     4    10    1
     5    10    11   ar
     6    11    12   ar
     7    12    13   ar
     8    13    14   ar
     9    14    15   ar
    10     4     5    1
    11     5     6    1
    12     6     7    1
    13     6     8    2
    14     8    16    1
    15    16    17    1
    16    17    18   ar
    17    18    19   ar
    18    19    20   ar
    19    20    21   ar
    20    21    22   ar
    21    22    23    1
    22     8     2    1
    23    22    17   ar
    24    15    10   ar
    25     7     9    1
@<TRIPOS>MOLECULE
*****
 23 25 0 0 0
SMALL
GASTEIGER

@<TRIPOS>ATOM
      1 O          63.5548   86.4451   14.0583 O.2     1  UNL1       -0.2907
      2 C          63.4980   87.7205   13.2708 C.2     1  UNL1        0.1819
      3 C          64.2839   88.9159   13.7217 C.3     1  UNL1        0.0746
      4 C          64.2271   90.1913   12.9343 C.3     1  UNL1        0.0375
      5 C          63.3843   90.2714   11.6960 C.3     1  UNL1        0.0690
      6 C          62.5983   89.0760   11.2452 C.2     1  UNL1        0.1201
      7 O          61.7555   89.1561   10.0070 O.2     1  UNL1       -0.5092
      8 C          62.6552   87.8006   12.0326 C.2     1  UNL1        0.0936
      9 H          61.7200   89.9528    9.5151 H       1  UNL1        0.2917
     10 C          65.0132   91.3867   13.3851 C.ar    1  UNL1       -0.0216
     11 C          65.4446   91.5041   14.8169 C.ar    1  UNL1       -0.0043
     12 C          66.2307   92.6994   15.2678 C.ar    1  UNL1       -0.0003
     13 C          66.5852   93.7775   14.2869 C.ar    1  UNL1       -0.0000
     14 C          66.1538   93.6601   12.8551 C.ar    1  UNL1       -0.0003
     15 C          65.3677   92.4647   12.4042 C.ar    1  UNL1       -0.0043
     16 S          61.8691   86.6052   11.5818 S.3     1  UNL1       -0.0806
     17 C          62.5824   85.3784   11.0956 C.ar    1  UNL1        0.0402
     18 C          63.0153   84.3258   12.0727 C.ar    1  UNL1        0.0073
     19 C          63.7286   83.0991   11.5865 C.ar    1  UNL1        0.0006
     20 C          64.0089   82.9250   10.1232 C.ar    1  UNL1        0.0009
     21 C          63.5760   83.9775    9.1462 C.ar    1  UNL1        0.0119
     22 C          62.8627   85.2043    9.6324 C.ar    1  UNL1        0.0636
     23 CL         62.4298   86.2569    8.6553 Cl      1  UNL1       -0.0817
@<TRIPOS>BOND
     1     1     2    2
     2     2     3    1
     3     3     4    1
     4     4    10    1
     5    10    11   ar
     6    11    12   ar
     7    12    13   ar
     8    13    14   ar
     9    14    15   ar
    10     4     5    1
    11     5     6    1
    12     6     7    1
    13     6     8    2
    14     8    16    1
    15    16    17    1
    16    17    18   ar
    17    18    19   ar
    18    19    20   ar
    19    20    21   ar
    20    21    22   ar
    21    22    23    1
    22     8     2    1
    23    22    17   ar
    24    15    10   ar
    25     7     9    1
@<TRIPOS>MOLECULE
*****
 23 25 0 0 0
SMALL
GASTEIGER

@<TRIPOS>ATOM
      1 O          61.6922   89.8055   10.1744 O.2     1  UNL1       -0.2907
      2 C          62.5956   89.5954   11.3533 C.2     1  UNL1        0.1819
      3 C          63.4558   90.7198   11.8488 C.3     1  UNL1        0.0746
      4 C          64.3592   90.5098   13.0277 C.3     1  UNL1        0.0375
      5 C          64.4023   89.1752   13.7111 C.3     1  UNL1        0.0690
      6 C          63.5421   88.0508   13.2156 C.2     1  UNL1        0.1201
      7 O          63.5853   86.7161   13.8990 O.2     1  UNL1       -0.5092
      8 C          62.6388   88.2608   12.0367 C.2     1  UNL1        0.0936
      9 H          64.1496   86.5849   14.6354 H       1  UNL1        0.2917
     10 C          65.2194   91.6343   13.5232 C.ar    1  UNL1       -0.0216
     11 C          65.6997   91.6412   14.9442 C.ar    1  UNL1       -0.0043
     12 C          66.5599   92.7657   15.4397 C.ar    1  UNL1       -0.0003
     13 C          66.9399   93.8833   14.5142 C.ar    1  UNL1       -0.0000
     14 C          66.4596   93.8765   13.0932 C.ar    1  UNL1       -0.0003
     15 C          65.5994   92.7519   12.5977 C.ar    1  UNL1       -0.0043
     16 S          61.7785   87.1363   11.5412 S.3     1  UNL1       -0.0806
     17 C          62.3469   86.1156   10.6004 C.ar    1  UNL1        0.0402
     18 C          62.4936   86.4386    9.1429 C.ar    1  UNL1        0.0073
     19 C          63.0620   85.4180    8.2020 C.ar    1  UNL1        0.0006
     20 C          63.4837   84.0743    8.7187 C.ar    1  UNL1        0.0009
     21 C          63.3370   83.7514   10.1761 C.ar    1  UNL1        0.0119
     22 C          62.7686   84.7720   11.1169 C.ar    1  UNL1        0.0636
     23 CL         62.6219   84.4490   12.5744 Cl      1  UNL1       -0.0817
@<TRIPOS>BOND
     1     1     2    2
     2     2     3    1
     3     3     4    1
     4     4    10    1
     5    10    11   ar
     6    11    12   ar
     7    12    13   ar
     8    13    14   ar
     9    14    15   ar
    10     4     5    1
    11     5     6    1
    12     6     7    1
    13     6     8    2
    14     8    16    1
    15    16    17    1
    16    17    18   ar
    17    18    19   ar
    18    19    20   ar
    19    20    21   ar
    20    21    22   ar
    21    22    23    1
    22     8     2    1
    23    22    17   ar
    24    15    10   ar
    25     7     9    1
