@<TRIPOS>MOLECULE
*****
 31 35 0 0 0
SMALL
GASTEIGER

@<TRIPOS>ATOM
      1 O          61.2257   85.5797   10.2632 O.2     1  UNL1       -0.2501
      2 C          60.6920   86.7542    9.4979 C.2     1  UNL1        0.3162
      3 O          59.8150   86.3301    8.3573 O.3     1  UNL1       -0.4485
      4 C          59.3335   87.5667    7.6581 C.3     1  UNL1        0.2090
      5 C          59.9129   88.7551    8.3665 C.3     1  UNL1        0.0582
      6 C          60.7525   88.2530    9.5036 C.3     1  UNL1        0.0985
      7 C          60.7183   89.7478    9.3840 C.3     1  UNL1        0.0109
      8 C          61.4839   90.5957   10.3561 C.3     1  UNL1        0.0026
      9 C          62.2838   89.9487   11.4477 C.3     1  UNL1        0.0268
     10 C          62.3180   88.4539   11.5672 C.3     1  UNL1        0.1424
     11 C          63.1179   87.8068   12.6589 C.ar    1  UNL1        0.0616
     12 C          63.8835   88.6546   13.6309 C.ar    1  UNL1        0.1407
     13 F          64.0691   90.1331   13.8033 F       1  UNL1       -0.2043
     14 C          64.6834   88.0076   14.7225 C.ar    1  UNL1        0.0319
     15 C          64.7176   86.5128   14.8421 C.ar    1  UNL1        0.0351
     16 C          63.9519   85.6650   13.8700 C.ar    1  UNL1        0.1737
     17 F          63.9861   84.1701   13.9895 F       1  UNL1       -0.2010
     18 C          63.1521   86.3119   12.7784 C.ar    1  UNL1        0.1654
     19 O          62.3864   85.4641   11.8063 O.3     1  UNL1       -0.4733
     20 C          61.5865   86.1112   10.7147 C.3     1  UNL1        0.2079
     21 C          61.5523   87.6060   10.5952 C.3     1  UNL1        0.0786
     22 S          63.0837   89.3017   12.5394 S.O2    1  UNL1        0.0093
     23 O          63.8639   89.4046   12.4127 O.2     1  UNL1       -0.1684
     24 O          62.0504   89.7314   13.5383 O.2     1  UNL1       -0.1684
     25 C          63.8493   90.1494   13.5115 C.ar    1  UNL1        0.1059
     26 C          65.1464   90.7793   13.0980 C.ar    1  UNL1        0.0192
     27 C          65.9120   91.6270   14.0701 C.ar    1  UNL1        0.0127
     28 C          65.3806   91.8450   15.4558 C.ar    1  UNL1        0.0578
     29 CL         66.1462   92.6928   16.4280 Cl      1  UNL1       -0.0822
     30 C          64.0835   91.2152   15.8693 C.ar    1  UNL1        0.0127
     31 C          63.3179   90.3674   14.8971 C.ar    1  UNL1        0.0192
@<TRIPOS>BOND
     1     1     2    2
     2     2     3    1
     3     3     4    1
     4     4     5    1
     5     6     5    1
     6     6     7    1
     7     7     8    1
     8     8     9    1
     9     9    10    1
    10    10    22    1
    11    22    23    2
    12    22    24    2
    13    22    25    1
    14    25    26   ar
    15    26    27   ar
    16    27    28   ar
    17    28    29    1
    18    28    30   ar
    19    30    31   ar
    20    10    11    1
    21    11    12   ar
    22    12    13    1
    23    12    14   ar
    24    14    15   ar
    25    15    16   ar
    26    16    17    1
    27    16    18   ar
    28    18    19    1
    29    19    20    1
    30    21    20    1
    31     6     2    1
    32    21    10    1
    33    21     6    1
    34    31    25   ar
    35    18    11   ar
@<TRIPOS>MOLECULE
*****
 31 35 0 0 0
SMALL
GASTEIGER

@<TRIPOS>ATOM
      1 O          62.1559   84.8581   10.8206 O.2     1  UNL1       -0.2501
      2 C          62.7776   83.9915   11.8753 C.2     1  UNL1        0.3162
      3 O          62.6098   82.5317   11.5738 O.3     1  UNL1       -0.4485
      4 C          63.2601   81.7525   12.6784 C.3     1  UNL1        0.2090
      5 C          63.8297   82.7307   13.6626 C.3     1  UNL1        0.0582
      6 C          63.5315   84.1144   13.1663 C.3     1  UNL1        0.0985
      7 C          64.2885   84.0805   14.4608 C.3     1  UNL1        0.0109
      8 C          64.6761   85.3622   15.1368 C.3     1  UNL1        0.0026
      9 C          64.3068   86.6779   14.5182 C.3     1  UNL1        0.0268
     10 C          63.5498   86.7118   13.2237 C.3     1  UNL1        0.1424
     11 C          63.1805   88.0275   12.6050 C.ar    1  UNL1        0.0616
     12 C          63.5681   89.3092   13.2810 C.ar    1  UNL1        0.1407
     13 F          64.3052   89.6392   14.5451 F       1  UNL1       -0.2043
     14 C          63.1988   90.6249   12.6625 C.ar    1  UNL1        0.0319
     15 C          62.4419   90.6588   11.3679 C.ar    1  UNL1        0.0351
     16 C          62.0542   89.3771   10.6919 C.ar    1  UNL1        0.1737
     17 F          61.2972   89.4110    9.3974 F       1  UNL1       -0.2010
     18 C          62.4235   88.0614   11.3105 C.ar    1  UNL1        0.1654
     19 O          62.0359   86.7796   10.6346 O.3     1  UNL1       -0.4733
     20 C          62.4052   85.4641   11.2532 C.3     1  UNL1        0.2079
     21 C          63.1622   85.4301   12.5477 C.3     1  UNL1        0.0786
     22 S          63.9375   87.9936   13.8996 S.O2    1  UNL1        0.0093
     23 O          64.2619   88.5689   13.4533 O.2     1  UNL1       -0.1684
     24 O          63.5604   87.7753   15.3350 O.2     1  UNL1       -0.1684
     25 C          64.3251   89.2753   14.5755 C.ar    1  UNL1        0.1059
     26 C          65.5896   89.9789   14.1806 C.ar    1  UNL1        0.0192
     27 C          65.9772   91.2606   14.8566 C.ar    1  UNL1        0.0127
     28 C          65.1003   91.8387   15.9275 C.ar    1  UNL1        0.0578
     29 CL         65.4879   93.1205   16.6035 Cl      1  UNL1       -0.0822
     30 C          63.8358   91.1351   16.3224 C.ar    1  UNL1        0.0127
     31 C          63.4482   89.8534   15.6464 C.ar    1  UNL1        0.0192
@<TRIPOS>BOND
     1     1     2    2
     2     2     3    1
     3     3     4    1
     4     4     5    1
     5     6     5    1
     6     6     7    1
     7     7     8    1
     8     8     9    1
     9     9    10    1
    10    10    22    1
    11    22    23    2
    12    22    24    2
    13    22    25    1
    14    25    26   ar
    15    26    27   ar
    16    27    28   ar
    17    28    29    1
    18    28    30   ar
    19    30    31   ar
    20    10    11    1
    21    11    12   ar
    22    12    13    1
    23    12    14   ar
    24    14    15   ar
    25    15    16   ar
    26    16    17    1
    27    16    18   ar
    28    18    19    1
    29    19    20    1
    30    21    20    1
    31     6     2    1
    32    21    10    1
    33    21     6    1
    34    31    25   ar
    35    18    11   ar
@<TRIPOS>MOLECULE
*****
 31 35 0 0 0
SMALL
GASTEIGER

@<TRIPOS>ATOM
      1 O          64.0976   87.8425   14.9957 O.2     1  UNL1       -0.2501
      2 C          63.9797   89.2141   14.4000 C.2     1  UNL1        0.3162
      3 O          64.3790   90.2848   15.3717 O.3     1  UNL1       -0.4485
      4 C          64.2282   91.6112   14.6877 C.3     1  UNL1        0.2090
      5 C          63.7356   91.3603   13.2933 C.3     1  UNL1        0.0582
      6 C          63.5821   89.8788   13.1155 C.3     1  UNL1        0.0985
      7 C          63.2170   90.6802   11.9012 C.3     1  UNL1        0.0109
      8 C          62.7481   89.9854   10.6572 C.3     1  UNL1        0.0026
      9 C          62.6443   88.4893   10.6276 C.3     1  UNL1        0.0268
     10 C          63.0094   87.6880   11.8419 C.3     1  UNL1        0.1424
     11 C          62.9057   86.1918   11.8123 C.ar    1  UNL1        0.0616
     12 C          62.4368   85.4970   10.5684 C.ar    1  UNL1        0.1407
     13 F          62.0025   85.9684    9.2122 F       1  UNL1       -0.2043
     14 C          62.3330   84.0009   10.5387 C.ar    1  UNL1        0.0319
     15 C          62.6981   83.1996   11.7530 C.ar    1  UNL1        0.0351
     16 C          63.1670   83.8944   12.9970 C.ar    1  UNL1        0.1737
     17 F          63.5321   83.0930   14.2113 F       1  UNL1       -0.2010
     18 C          63.2708   85.3905   13.0266 C.ar    1  UNL1        0.1654
     19 O          63.7397   86.0853   14.2706 O.3     1  UNL1       -0.4733
     20 C          63.8434   87.5814   14.3002 C.3     1  UNL1        0.2079
     21 C          63.4783   88.3827   13.0859 C.3     1  UNL1        0.0786
     22 S          62.5405   86.9931   10.5979 S.O2    1  UNL1        0.0093
     23 O          62.9854   87.0624    9.9401 O.2     1  UNL1       -0.1684
     24 O          61.2651   86.3230   11.0155 O.2     1  UNL1       -0.1684
     25 C          62.0716   86.2983    9.3541 C.ar    1  UNL1        0.1059
     26 C          63.0521   85.5575    8.4938 C.ar    1  UNL1        0.0192
     27 C          62.5832   84.8626    7.2500 C.ar    1  UNL1        0.0127
     28 C          61.1338   84.9085    6.8663 C.ar    1  UNL1        0.0578
     29 CL         60.6648   84.2136    5.6224 Cl      1  UNL1       -0.0822
     30 C          60.1534   85.6492    7.7265 C.ar    1  UNL1        0.0127
     31 C          60.6223   86.3441    8.9704 C.ar    1  UNL1        0.0192
@<TRIPOS>BOND
     1     1     2    2
     2     2     3    1
     3     3     4    1
     4     4     5    1
     5     6     5    1
     6     6     7    1
     7     7     8    1
     8     8     9    1
     9     9    10    1
    10    10    22    1
    11    22    23    2
    12    22    24    2
    13    22    25    1
    14    25    26   ar
    15    26    27   ar
    16    27    28   ar
    17    28    29    1
    18    28    30   ar
    19    30    31   ar
    20    10    11    1
    21    11    12   ar
    22    12    13    1
    23    12    14   ar
    24    14    15   ar
    25    15    16   ar
    26    16    17    1
    27    16    18   ar
    28    18    19    1
    29    19    20    1
    30    21    20    1
    31     6     2    1
    32    21    10    1
    33    21     6    1
    34    31    25   ar
    35    18    11   ar
@<TRIPOS>MOLECULE
*****
 31 35 0 0 0
SMALL
GASTEIGER

@<TRIPOS>ATOM
      1 O          62.8373   90.5855   11.6013 O.2     1  UNL1       -0.2501
      2 C          63.5823   90.5422   12.9025 C.2     1  UNL1        0.3162
      3 O          63.9244   91.9153   13.3999 O.3     1  UNL1       -0.4485
      4 C          64.6629   91.7678   14.6972 C.3     1  UNL1        0.2090
      5 C          64.7772   90.3034   15.0015 C.3     1  UNL1        0.0582
      6 C          64.1094   89.5460   13.8923 C.3     1  UNL1        0.0985
      7 C          64.6890   88.6724   14.9650 C.3     1  UNL1        0.0109
      8 C          64.5693   87.1806   14.8635 C.3     1  UNL1        0.0026
      9 C          63.8698   86.5625   13.6893 C.3     1  UNL1        0.0268
     10 C          63.2902   87.4361   12.6166 C.3     1  UNL1        0.1424
     11 C          62.5907   86.8181   11.4423 C.ar    1  UNL1        0.0616
     12 C          62.4709   85.3263   11.3408 C.ar    1  UNL1        0.1407
     13 F          62.9189   84.1838   12.2034 F       1  UNL1       -0.2043
     14 C          61.7715   84.7082   10.1667 C.ar    1  UNL1        0.0319
     15 C          61.1918   85.5819    9.0940 C.ar    1  UNL1        0.0351
     16 C          61.3116   87.0737    9.1955 C.ar    1  UNL1        0.1737
     17 F          60.7319   87.9473    8.1228 F       1  UNL1       -0.2010
     18 C          62.0110   87.6918   10.3696 C.ar    1  UNL1        0.1654
     19 O          62.1308   89.1836   10.4712 O.3     1  UNL1       -0.4733
     20 C          62.8303   89.8016   11.6454 C.3     1  UNL1        0.2079
     21 C          63.4099   88.9279   12.7181 C.3     1  UNL1        0.0786
     22 S          63.1704   85.9444   12.5150 S.O2    1  UNL1        0.0093
     23 O          63.8402   85.5127   12.5361 O.2     1  UNL1       -0.1684
     24 O          61.6943   85.7063   12.3946 O.2     1  UNL1       -0.1684
     25 C          63.0505   84.4527   12.4135 C.ar    1  UNL1        0.1059
     26 C          62.1763   83.7032   13.3749 C.ar    1  UNL1        0.0192
     27 C          62.0565   82.2116   13.2733 C.ar    1  UNL1        0.0127
     28 C          62.8107   81.4692   12.2104 C.ar    1  UNL1        0.0578
     29 CL         62.6909   79.9774   12.1087 Cl      1  UNL1       -0.0822
     30 C          63.6849   82.2185   11.2490 C.ar    1  UNL1        0.0127
     31 C          63.8048   83.7103   11.3505 C.ar    1  UNL1        0.0192
@<TRIPOS>BOND
     1     1     2    2
     2     2     3    1
     3     3     4    1
     4     4     5    1
     5     6     5    1
     6     6     7    1
     7     7     8    1
     8     8     9    1
     9     9    10    1
    10    10    22    1
    11    22    23    2
    12    22    24    2
    13    22    25    1
    14    25    26   ar
    15    26    27   ar
    16    27    28   ar
    17    28    29    1
    18    28    30   ar
    19    30    31   ar
    20    10    11    1
    21    11    12   ar
    22    12    13    1
    23    12    14   ar
    24    14    15   ar
    25    15    16   ar
    26    16    17    1
    27    16    18   ar
    28    18    19    1
    29    19    20    1
    30    21    20    1
    31     6     2    1
    32    21    10    1
    33    21     6    1
    34    31    25   ar
    35    18    11   ar
@<TRIPOS>MOLECULE
*****
 31 35 0 0 0
SMALL
GASTEIGER

@<TRIPOS>ATOM
      1 O          62.0399   90.0638   10.9600 O.2     1  UNL1       -0.2501
      2 C          61.2575   89.4396    9.8428 C.2     1  UNL1        0.3162
      3 O          60.6470   90.4703    8.9401 O.3     1  UNL1       -0.4485
      4 C          59.8904   89.7526    7.8619 C.3     1  UNL1        0.2090
      5 C          60.0333   88.2782    8.0982 C.3     1  UNL1        0.0582
      6 C          60.8783   88.0848    9.3225 C.3     1  UNL1        0.0985
      7 C          60.4211   86.8047    8.6882 C.3     1  UNL1        0.0109
      8 C          60.8172   85.4877    9.2869 C.3     1  UNL1        0.0026
      9 C          61.6704   85.4507   10.5200 C.3     1  UNL1        0.0268
     10 C          62.1276   86.7308   11.1544 C.3     1  UNL1        0.1424
     11 C          62.9809   86.6940   12.3875 C.ar    1  UNL1        0.0616
     12 C          63.3770   85.3769   12.9863 C.ar    1  UNL1        0.1407
     13 F          63.1080   83.9457   12.6268 F       1  UNL1       -0.2043
     14 C          64.2302   85.3400   14.2194 C.ar    1  UNL1        0.0319
     15 C          64.6874   86.6201   14.8537 C.ar    1  UNL1        0.0351
     16 C          64.2913   87.9371   14.2549 C.ar    1  UNL1        0.1737
     17 F          64.7485   89.2172   14.8893 F       1  UNL1       -0.2010
     18 C          63.4381   87.9741   13.0218 C.ar    1  UNL1        0.1654
     19 O          63.0419   89.2911   12.4230 O.3     1  UNL1       -0.4733
     20 C          62.1887   89.3279   11.1899 C.3     1  UNL1        0.2079
     21 C          61.7315   88.0479   10.5556 C.3     1  UNL1        0.0786
     22 S          62.5237   85.4138   11.7532 S.O2    1  UNL1        0.0093
     23 O          62.3625   85.2894   12.5239 O.2     1  UNL1       -0.1684
     24 O          63.1574   84.6728   10.6133 O.2     1  UNL1       -0.1684
     25 C          62.9199   84.0969   12.3520 C.ar    1  UNL1        0.1059
     26 C          64.1616   83.4009   11.8788 C.ar    1  UNL1        0.0192
     27 C          64.5577   82.0840   12.4775 C.ar    1  UNL1        0.0127
     28 C          63.7122   81.4629   13.5496 C.ar    1  UNL1        0.0578
     29 CL         64.1083   80.1458   14.1484 Cl      1  UNL1       -0.0822
     30 C          62.4705   82.1587   14.0228 C.ar    1  UNL1        0.0127
     31 C          62.0744   83.4757   13.4240 C.ar    1  UNL1        0.0192
@<TRIPOS>BOND
     1     1     2    2
     2     2     3    1
     3     3     4    1
     4     4     5    1
     5     6     5    1
     6     6     7    1
     7     7     8    1
     8     8     9    1
     9     9    10    1
    10    10    22    1
    11    22    23    2
    12    22    24    2
    13    22    25    1
    14    25    26   ar
    15    26    27   ar
    16    27    28   ar
    17    28    29    1
    18    28    30   ar
    19    30    31   ar
    20    10    11    1
    21    11    12   ar
    22    12    13    1
    23    12    14   ar
    24    14    15   ar
    25    15    16   ar
    26    16    17    1
    27    16    18   ar
    28    18    19    1
    29    19    20    1
    30    21    20    1
    31     6     2    1
    32    21    10    1
    33    21     6    1
    34    31    25   ar
    35    18    11   ar
@<TRIPOS>MOLECULE
*****
 31 35 0 0 0
SMALL
GASTEIGER

@<TRIPOS>ATOM
      1 O          63.4913   88.9858   13.2849 O.2     1  UNL1       -0.2501
      2 C          62.8891   89.2022   11.9282 C.2     1  UNL1        0.3162
      3 O          62.7266   90.6594   11.6116 O.3     1  UNL1       -0.4485
      4 C          62.1212   90.7719   10.2438 C.3     1  UNL1        0.2090
      5 C          61.9096   89.3842    9.7150 C.3     1  UNL1        0.0582
      6 C          62.3842   88.4142   10.7560 C.3     1  UNL1        0.0985
      7 C          61.8470   87.7638    9.5157 C.3     1  UNL1        0.0109
      8 C          61.8212   86.2681    9.4041 C.3     1  UNL1        0.0026
      9 C          62.3326   85.4229   10.5328 C.3     1  UNL1        0.0268
     10 C          62.8698   86.0733   11.7731 C.3     1  UNL1        0.1424
     11 C          63.3812   85.2281   12.9020 C.ar    1  UNL1        0.0616
     12 C          63.3554   83.7325   12.7904 C.ar    1  UNL1        0.1407
     13 F          62.9021   82.7743   11.7290 F       1  UNL1       -0.2043
     14 C          63.8668   82.8872   13.9191 C.ar    1  UNL1        0.0319
     15 C          64.4040   83.5376   15.1594 C.ar    1  UNL1        0.0351
     16 C          64.4298   85.0332   15.2710 C.ar    1  UNL1        0.1737
     17 F          64.9669   85.6836   16.5114 F       1  UNL1       -0.2010
     18 C          63.9184   85.8785   14.1423 C.ar    1  UNL1        0.1654
     19 O          63.9441   87.3741   14.2538 O.3     1  UNL1       -0.4733
     20 C          63.4328   88.2193   13.1251 C.3     1  UNL1        0.2079
     21 C          62.8956   87.5689   11.8848 C.3     1  UNL1        0.0786
     22 S          62.8440   84.5776   11.6616 S.O2    1  UNL1        0.0093
     23 O          62.1339   84.2163   11.6358 O.2     1  UNL1       -0.1684
     24 O          64.2931   84.1911   11.6304 O.2     1  UNL1       -0.1684
     25 C          62.8183   83.0821   11.5501 C.ar    1  UNL1        0.1059
     26 C          63.5857   82.3981   10.4576 C.ar    1  UNL1        0.0192
     27 C          63.5600   80.9026   10.3460 C.ar    1  UNL1        0.0127
     28 C          62.7670   80.0908   11.3270 C.ar    1  UNL1        0.0578
     29 CL         62.7413   78.5951   11.2155 Cl      1  UNL1       -0.0822
     30 C          61.9997   80.7747   12.4195 C.ar    1  UNL1        0.0127
     31 C          62.0254   82.2703   12.5310 C.ar    1  UNL1        0.0192
@<TRIPOS>BOND
     1     1     2    2
     2     2     3    1
     3     3     4    1
     4     4     5    1
     5     6     5    1
     6     6     7    1
     7     7     8    1
     8     8     9    1
     9     9    10    1
    10    10    22    1
    11    22    23    2
    12    22    24    2
    13    22    25    1
    14    25    26   ar
    15    26    27   ar
    16    27    28   ar
    17    28    29    1
    18    28    30   ar
    19    30    31   ar
    20    10    11    1
    21    11    12   ar
    22    12    13    1
    23    12    14   ar
    24    14    15   ar
    25    15    16   ar
    26    16    17    1
    27    16    18   ar
    28    18    19    1
    29    19    20    1
    30    21    20    1
    31     6     2    1
    32    21    10    1
    33    21     6    1
    34    31    25   ar
    35    18    11   ar
