@<TRIPOS>MOLECULE
*****
 42 47 0 0 0
SMALL
GASTEIGER

@<TRIPOS>ATOM
      1 N          57.7365   95.5476   -3.8889 N.am    1  UNL1       -0.1907
      2 C          58.9647   95.3517   -4.7276 C.2     1  UNL1        0.3219
      3 O          59.0124   95.3158   -6.2263 O.2     1  UNL1       -0.2512
      4 N          60.1368   95.1980   -3.8042 N.am    1  UNL1       -0.2222
      5 C          59.6331   95.2989   -2.3949 C.3     1  UNL1        0.1391
      6 C          58.9862   95.4195   -1.0470 C.3     1  UNL1        0.0449
      7 C          59.8196   95.3215    0.1963 C.3     1  UNL1        0.0746
      8 N          61.2999   95.1029    0.0917 N.3     1  UNL1       -0.2676
      9 C          61.9468   94.9823   -1.2562 C.3     1  UNL1        0.0746
     10 C          61.1134   95.0803   -2.4995 C.3     1  UNL1        0.0449
     11 C          58.1497   95.5149   -2.4472 C.2     1  UNL1        0.2529
     12 O          57.2392   95.6709   -1.2654 O.2     1  UNL1       -0.2724
     13 C          61.5624   94.9815   -4.2176 C.ar    1  UNL1        0.1453
     14 C          62.1040   93.5882   -4.3416 C.ar    1  UNL1        0.0922
     15 C          63.5296   93.3717   -4.7549 C.ar    1  UNL1        0.2259
     16 O          64.0712   91.9784   -4.8790 O.3     1  UNL1       -0.4919
     17 N          64.4136   94.5485   -5.0443 N.ar    1  UNL1       -0.1894
     18 C          63.8720   95.9418   -4.9203 C.ar    1  UNL1        0.2027
     19 N          62.4464   96.1583   -4.5069 N.ar    1  UNL1       -0.2084
     20 H          63.5190   91.2433   -4.6982 H       1  UNL1        0.2938
     21 C          53.5482   96.1307   -5.4277 C.ar    1  UNL1        0.0392
     22 C          54.5308   95.3171   -6.2169 C.ar    1  UNL1        0.0044
     23 C          55.9268   95.1227   -5.7039 C.ar    1  UNL1        0.0155
     24 C          56.3404   95.7419   -4.4018 C.ar    1  UNL1        0.0622
     25 C          55.3580   96.5555   -3.6127 C.ar    1  UNL1        0.0155
     26 C          53.9619   96.7498   -4.1256 C.ar    1  UNL1        0.0044
     27 C          49.7376   96.5539   -6.0322 C.ar    1  UNL1        0.2668
     28 N          50.9009   96.3257   -5.1132 N.ar    1  UNL1       -0.1886
     29 C          52.1522   96.3251   -5.9406 C.ar    1  UNL1        0.2034
     30 N          51.7621   96.5530   -7.3709 N.ar    1  UNL1       -0.0559
     31 O          50.2698   96.6944   -7.4275 O.2     1  UNL1       -0.3344
     32 C          48.2953   96.6286   -5.6270 C.3     1  UNL1        0.2300
     33 C          46.7997   95.0334   -7.0299 C.3     1  UNL1        0.1748
     34 O          47.2174   96.4229   -6.6495 O.3     1  UNL1       -0.3416
     35 C          62.1333   95.0050    1.3351 C.3     1  UNL1        0.1183
     36 C          62.2559   93.6945    2.0545 C.ar    1  UNL1        0.0712
     37 N          61.1025   93.1683    2.8562 N.ar    1  UNL1       -0.2471
     38 C          61.2251   91.8577    3.5756 C.ar    1  UNL1        0.0985
     39 C          62.5011   91.0735    3.4933 C.ar    1  UNL1        0.0203
     40 C          63.6545   91.5997    2.6916 C.ar    1  UNL1       -0.0015
     41 C          63.5319   92.9102    1.9722 C.ar    1  UNL1       -0.0069
     42 C          64.6853   93.4364    1.1705 C.3     1  UNL1        0.0323
@<TRIPOS>BOND
     1    33    34    1
     2    34    32    1
     3    32    27    1
     4    27    28   ar
     5    28    29   ar
     6    29    21    1
     7    21    22   ar
     8    22    23   ar
     9    23    24   ar
    10    24     1    1
    11     1     2   am
    12     2     3    2
    13     2     4   am
    14     4    13    1
    15    13    14   ar
    16    14    15   ar
    17    15    16    1
    18    15    17   ar
    19    17    18   ar
    20    18    19   ar
    21     4     5    1
    22     5     6    1
    23     6     7    1
    24     7     8    1
    25     8    35    1
    26    35    36    1
    27    36    37   ar
    28    37    38   ar
    29    38    39   ar
    30    39    40   ar
    31    40    41   ar
    32    41    42    1
    33     8     9    1
    34     9    10    1
    35     5    11    1
    36    11    12    2
    37    24    25   ar
    38    25    26   ar
    39    29    30   ar
    40    30    31   ar
    41    31    27   ar
    42    26    21   ar
    43    11     1   am
    44    19    13   ar
    45    10     5    1
    46    41    36   ar
    47    16    20    1
@<TRIPOS>MOLECULE
*****
 42 47 0 0 0
SMALL
GASTEIGER

@<TRIPOS>ATOM
      1 N          60.7343   92.9471    2.3022 N.am    1  UNL1       -0.1907
      2 C          62.0881   93.4241    1.8666 C.2     1  UNL1        0.3219
      3 O          63.3921   93.1080    2.5370 O.2     1  UNL1       -0.2512
      4 N          61.9089   94.2728    0.6428 N.am    1  UNL1       -0.2222
      5 C          60.4443   94.3203    0.3220 C.3     1  UNL1        0.1391
      6 C          58.9578   94.2759    0.1266 C.3     1  UNL1        0.0449
      7 C          58.3295   95.0133   -1.0186 C.3     1  UNL1        0.0746
      8 N          59.1878   95.7950   -1.9685 N.3     1  UNL1       -0.2676
      9 C          60.6743   95.8394   -1.7731 C.3     1  UNL1        0.0746
     10 C          61.3026   95.1021   -0.6279 C.3     1  UNL1        0.0449
     11 C          59.7183   93.5010    1.3475 C.2     1  UNL1        0.2529
     12 O          58.2367   93.2753    1.4079 O.2     1  UNL1       -0.2724
     13 C          63.0022   94.9543   -0.1254 C.ar    1  UNL1        0.1453
     14 C          63.4303   94.4158   -1.4584 C.ar    1  UNL1        0.0922
     15 C          64.5236   95.0974   -2.2266 C.ar    1  UNL1        0.2259
     16 O          64.9517   94.5589   -3.5595 O.3     1  UNL1       -0.4919
     17 N          65.1890   96.3174   -1.6618 N.ar    1  UNL1       -0.1894
     18 C          64.7609   96.8558   -0.3288 C.ar    1  UNL1        0.2027
     19 N          63.6676   96.1743    0.4393 N.ar    1  UNL1       -0.2084
     20 H          64.5361   93.7969   -3.9124 H       1  UNL1        0.2938
     21 C          59.8719   90.3166    5.8499 C.ar    1  UNL1        0.0392
     22 C          61.2484   90.3455    5.2546 C.ar    1  UNL1        0.0044
     23 C          61.5359   91.2224    4.0720 C.ar    1  UNL1        0.0155
     24 C          60.4468   92.0703    3.4848 C.ar    1  UNL1        0.0622
     25 C          59.0704   92.0413    4.0800 C.ar    1  UNL1        0.0155
     26 C          58.7829   91.1645    5.2625 C.ar    1  UNL1        0.0044
     27 C          59.6337   88.4815    9.2618 C.ar    1  UNL1        0.2668
     28 N          60.2110   89.5573    8.3903 N.ar    1  UNL1       -0.1886
     29 C          59.5845   89.4397    7.0324 C.ar    1  UNL1        0.2034
     30 N          58.6200   88.2913    7.0648 N.ar    1  UNL1       -0.0559
     31 O          58.6505   87.6991    8.4427 O.2     1  UNL1       -0.3344
     32 C          59.9792   88.2321   10.7000 C.3     1  UNL1        0.2300
     33 C          61.3308   86.1215   10.0153 C.3     1  UNL1        0.1748
     34 O          60.7725   87.0174   11.0810 O.3     1  UNL1       -0.3416
     35 C          58.5595   96.5323   -3.1138 C.3     1  UNL1        0.1183
     36 C          57.4596   95.8902   -3.9061 C.ar    1  UNL1        0.0712
     37 N          56.0391   96.3312   -3.7115 N.ar    1  UNL1       -0.2471
     38 C          54.9392   95.6890   -4.5038 C.ar    1  UNL1        0.0985
     39 C          55.2597   94.6059   -5.4907 C.ar    1  UNL1        0.0203
     40 C          56.6801   94.1649   -5.6854 C.ar    1  UNL1       -0.0015
     41 C          57.7801   94.8070   -4.8931 C.ar    1  UNL1       -0.0069
     42 C          59.2005   94.3660   -5.0877 C.3     1  UNL1        0.0323
@<TRIPOS>BOND
     1    33    34    1
     2    34    32    1
     3    32    27    1
     4    27    28   ar
     5    28    29   ar
     6    29    21    1
     7    21    22   ar
     8    22    23   ar
     9    23    24   ar
    10    24     1    1
    11     1     2   am
    12     2     3    2
    13     2     4   am
    14     4    13    1
    15    13    14   ar
    16    14    15   ar
    17    15    16    1
    18    15    17   ar
    19    17    18   ar
    20    18    19   ar
    21     4     5    1
    22     5     6    1
    23     6     7    1
    24     7     8    1
    25     8    35    1
    26    35    36    1
    27    36    37   ar
    28    37    38   ar
    29    38    39   ar
    30    39    40   ar
    31    40    41   ar
    32    41    42    1
    33     8     9    1
    34     9    10    1
    35     5    11    1
    36    11    12    2
    37    24    25   ar
    38    25    26   ar
    39    29    30   ar
    40    30    31   ar
    41    31    27   ar
    42    26    21   ar
    43    11     1   am
    44    19    13   ar
    45    10     5    1
    46    41    36   ar
    47    16    20    1
@<TRIPOS>MOLECULE
*****
 42 47 0 0 0
SMALL
GASTEIGER

@<TRIPOS>ATOM
      1 N          60.3205   92.7627    1.5966 N.am    1  UNL1       -0.1907
      2 C          61.5873   93.3296    1.0274 C.2     1  UNL1        0.3219
      3 O          62.9450   93.2654    1.6617 O.2     1  UNL1       -0.2512
      4 N          61.2579   93.9721   -0.2874 N.am    1  UNL1       -0.2222
      5 C          59.7875   93.8022   -0.5309 C.3     1  UNL1        0.1391
      6 C          58.3115   93.5569   -0.6367 C.3     1  UNL1        0.0449
      7 C          57.5536   94.0482   -1.8343 C.3     1  UNL1        0.0746
      8 N          58.2717   94.7849   -2.9259 N.3     1  UNL1       -0.2676
      9 C          59.7477   95.0302   -2.8201 C.3     1  UNL1        0.0746
     10 C          60.5056   94.5389   -1.6225 C.3     1  UNL1        0.0449
     11 C          59.2082   93.0548    0.6335 C.2     1  UNL1        0.2529
     12 O          57.7692   92.6674    0.8047 O.2     1  UNL1       -0.2724
     13 C          62.2284   94.6631   -1.1987 C.ar    1  UNL1        0.1453
     14 C          63.0653   93.8607   -2.1504 C.ar    1  UNL1        0.0922
     15 C          64.0358   94.5518   -3.0617 C.ar    1  UNL1        0.2259
     16 O          64.8727   93.7495   -4.0134 O.3     1  UNL1       -0.4919
     17 N          64.1694   96.0454   -3.0215 N.ar    1  UNL1       -0.1894
     18 C          63.3324   96.8478   -2.0698 C.ar    1  UNL1        0.2027
     19 N          62.3620   96.1567   -1.1585 N.ar    1  UNL1       -0.2084
     20 H          64.7893   92.8165   -4.0386 H       1  UNL1        0.2938
     21 C          59.9264   90.5705    5.5067 C.ar    1  UNL1        0.0392
     22 C          58.7080   91.1315    4.8352 C.ar    1  UNL1        0.0044
     23 C          58.8394   91.8622    3.5318 C.ar    1  UNL1        0.0155
     24 C          60.1891   92.0319    2.9000 C.ar    1  UNL1        0.0622
     25 C          61.4074   91.4710    3.5714 C.ar    1  UNL1        0.0155
     26 C          61.2760   90.7403    4.8748 C.ar    1  UNL1        0.0044
     27 C          60.0080   89.2413    9.1525 C.ar    1  UNL1        0.2668
     28 N          60.3896   90.2613    8.1211 N.ar    1  UNL1       -0.1886
     29 C          59.7950   89.8398    6.8100 C.ar    1  UNL1        0.2034
     30 N          59.0459   88.5592    7.0313 N.ar    1  UNL1       -0.0559
     31 O          59.1775   88.1893    8.4790 O.2     1  UNL1       -0.3344
     32 C          60.3899   89.2685   10.6028 C.3     1  UNL1        0.2300
     33 C          62.7106   90.3390   11.0700 C.3     1  UNL1        0.1748
     34 O          61.8288   89.1275   11.0023 O.3     1  UNL1       -0.3416
     35 C          57.5137   95.2762   -4.1235 C.3     1  UNL1        0.1183
     36 C          57.0714   94.3079   -5.1802 C.ar    1  UNL1        0.0712
     37 N          57.6677   92.9326   -5.2342 N.ar    1  UNL1       -0.2471
     38 C          57.2254   91.9643   -6.2910 C.ar    1  UNL1        0.0985
     39 C          56.1867   92.3713   -7.2938 C.ar    1  UNL1        0.0203
     40 C          55.5904   93.7466   -7.2398 C.ar    1  UNL1       -0.0015
     41 C          56.0327   94.7149   -6.1831 C.ar    1  UNL1       -0.0069
     42 C          55.4364   96.0902   -6.1291 C.3     1  UNL1        0.0323
@<TRIPOS>BOND
     1    33    34    1
     2    34    32    1
     3    32    27    1
     4    27    28   ar
     5    28    29   ar
     6    29    21    1
     7    21    22   ar
     8    22    23   ar
     9    23    24   ar
    10    24     1    1
    11     1     2   am
    12     2     3    2
    13     2     4   am
    14     4    13    1
    15    13    14   ar
    16    14    15   ar
    17    15    16    1
    18    15    17   ar
    19    17    18   ar
    20    18    19   ar
    21     4     5    1
    22     5     6    1
    23     6     7    1
    24     7     8    1
    25     8    35    1
    26    35    36    1
    27    36    37   ar
    28    37    38   ar
    29    38    39   ar
    30    39    40   ar
    31    40    41   ar
    32    41    42    1
    33     8     9    1
    34     9    10    1
    35     5    11    1
    36    11    12    2
    37    24    25   ar
    38    25    26   ar
    39    29    30   ar
    40    30    31   ar
    41    31    27   ar
    42    26    21   ar
    43    11     1   am
    44    19    13   ar
    45    10     5    1
    46    41    36   ar
    47    16    20    1
