@<TRIPOS>MOLECULE
*****
 32 36 0 0 0
SMALL
GASTEIGER

@<TRIPOS>ATOM
      1 O          63.3978   87.3447   12.9475 O.2     1  UNL1       -0.2699
      2 C          62.7587   86.5576   11.8421 C.2     1  UNL1        0.2506
      3 N          61.7053   87.1910   10.9823 N.am    1  UNL1       -0.2723
      4 C          61.0662   86.4038    9.8769 C.3     1  UNL1        0.1257
      5 C          60.0128   87.0373    9.0172 C.3     1  UNL1        0.1637
      6 O          59.5986   88.4579    9.2628 O.3     1  UNL1       -0.3502
      7 C          60.2377   89.2450   10.3682 C.3     1  UNL1        0.1622
      8 C          61.2911   88.6116   11.2279 C.3     1  UNL1        0.1097
      9 C          63.1729   85.1369   11.5965 C.ar    1  UNL1        0.0729
     10 C          63.3391   84.6363   10.1923 C.ar    1  UNL1        0.0061
     11 C          63.7533   83.2157    9.9466 C.ar    1  UNL1        0.0002
     12 C          64.0014   82.2958   11.1052 C.ar    1  UNL1        0.0016
     13 C          63.8352   82.7965   12.5094 C.ar    1  UNL1        0.0211
     14 C          63.4210   84.2171   12.7550 C.ar    1  UNL1        0.1072
     15 N          63.2548   84.7177   14.1592 N.ar    1  UNL1       -0.1477
     16 N          64.3222   85.3511   15.0015 N.ar    1  UNL1       -0.1447
     17 C          63.7192   85.6978   16.3305 C.ar    1  UNL1        0.1446
     18 C          62.2790   85.2787   16.3095 C.ar    1  UNL1        0.1446
     19 N          61.9921   84.6730   14.9676 N.ar    1  UNL1       -0.1447
     20 C          61.9302   89.3988   12.3333 C.3     1  UNL1        0.0510
     21 C          63.0221   90.3789   12.0218 C.ar    1  UNL1        0.0086
     22 C          63.9756   90.8065   13.0979 C.ar    1  UNL1        0.0189
     23 C          65.0676   91.7866   12.7863 C.ar    1  UNL1        0.1027
     24 C          65.2060   92.3392   11.3987 C.ar    1  UNL1        0.0232
     25 C          64.2524   91.9116   10.3226 C.ar    1  UNL1        0.0309
     26 C          63.1605   90.9315   10.6341 C.ar    1  UNL1        0.1363
     27 F          62.2070   90.5039    9.5581 F       1  UNL1       -0.2045
     28 N          66.0211   92.2142   13.8624 N.ar    1  UNL1       -0.1478
     29 N          65.6770   92.4472   15.3037 N.ar    1  UNL1       -0.1447
     30 C          66.9293   92.8608   16.0182 C.ar    1  UNL1        0.1446
     31 C          68.0474   92.8834   15.0185 C.ar    1  UNL1        0.1446
     32 N          67.4861   92.4838   13.6862 N.ar    1  UNL1       -0.1447
@<TRIPOS>BOND
     1     1     2    2
     2     2     9    1
     3     9    10   ar
     4    10    11   ar
     5    11    12   ar
     6    12    13   ar
     7    13    14   ar
     8    14    15    1
     9    15    16   ar
    10    16    17   ar
    11    17    18   ar
    12    18    19   ar
    13     2     3   am
    14     3     4    1
    15     4     5    1
    16     5     6    1
    17     6     7    1
    18     7     8    1
    19     8    20    1
    20    20    21    1
    21    21    22   ar
    22    22    23   ar
    23    23    28    1
    24    28    29   ar
    25    29    30   ar
    26    30    31   ar
    27    31    32   ar
    28    23    24   ar
    29    24    25   ar
    30    25    26   ar
    31    26    27    1
    32    14     9   ar
    33    19    15   ar
    34     8     3    1
    35    26    21   ar
    36    32    28   ar
@<TRIPOS>MOLECULE
*****
 32 36 0 0 0
SMALL
GASTEIGER

@<TRIPOS>ATOM
      1 O          63.5359   87.4720   13.4815 O.2     1  UNL1       -0.2699
      2 C          62.9576   87.0962   12.1495 C.2     1  UNL1        0.2506
      3 N          62.2466   88.1264   11.3229 N.am    1  UNL1       -0.2723
      4 C          61.6684   87.7506    9.9909 C.3     1  UNL1        0.1257
      5 C          60.9574   88.7809    9.1643 C.3     1  UNL1        0.1637
      6 O          60.8246   90.1869    9.6699 O.3     1  UNL1       -0.3502
      7 C          61.4029   90.5626   11.0020 C.3     1  UNL1        0.1622
      8 C          62.1139   89.5325   11.8285 C.3     1  UNL1        0.1097
      9 C          63.0904   85.6902   11.6439 C.ar    1  UNL1        0.0729
     10 C          63.1137   85.4229   10.1681 C.ar    1  UNL1        0.0061
     11 C          63.2464   84.0169    9.6626 C.ar    1  UNL1        0.0002
     12 C          63.3559   82.8783   10.6328 C.ar    1  UNL1        0.0016
     13 C          63.3325   83.1456   12.1087 C.ar    1  UNL1        0.0211
     14 C          63.1998   84.5515   12.6142 C.ar    1  UNL1        0.1072
     15 N          63.1764   84.8188   14.0900 N.ar    1  UNL1       -0.1477
     16 N          64.3583   85.1829   14.9389 N.ar    1  UNL1       -0.1447
     17 C          63.8795   85.3581   16.3496 C.ar    1  UNL1        0.1446
     18 C          62.4016   85.1023   16.3726 C.ar    1  UNL1        0.1446
     19 N          61.9671   84.7690   14.9761 N.ar    1  UNL1       -0.1447
     20 C          62.6922   89.9082   13.1605 C.3     1  UNL1        0.0510
     21 C          63.9977   90.6434   13.2310 C.ar    1  UNL1        0.0086
     22 C          64.4146   91.5411   12.1039 C.ar    1  UNL1        0.0189
     23 C          65.7203   92.2763   12.1743 C.ar    1  UNL1        0.1027
     24 C          66.6089   92.1137   13.3717 C.ar    1  UNL1        0.0232
     25 C          66.1919   91.2160   14.4988 C.ar    1  UNL1        0.0309
     26 C          64.8864   90.4808   14.4284 C.ar    1  UNL1        0.1363
     27 F          64.4694   89.5831   15.5554 F       1  UNL1       -0.2045
     28 N          66.1372   93.1740   11.0472 N.ar    1  UNL1       -0.1478
     29 N          65.6003   94.5465   10.7685 N.ar    1  UNL1       -0.1447
     30 C          66.2955   95.0776    9.5500 C.ar    1  UNL1        0.1446
     31 C          67.2621   94.0332    9.0757 C.ar    1  UNL1        0.1446
     32 N          67.1642   92.8567   10.0010 N.ar    1  UNL1       -0.1447
@<TRIPOS>BOND
     1     1     2    2
     2     2     9    1
     3     9    10   ar
     4    10    11   ar
     5    11    12   ar
     6    12    13   ar
     7    13    14   ar
     8    14    15    1
     9    15    16   ar
    10    16    17   ar
    11    17    18   ar
    12    18    19   ar
    13     2     3   am
    14     3     4    1
    15     4     5    1
    16     5     6    1
    17     6     7    1
    18     7     8    1
    19     8    20    1
    20    20    21    1
    21    21    22   ar
    22    22    23   ar
    23    23    28    1
    24    28    29   ar
    25    29    30   ar
    26    30    31   ar
    27    31    32   ar
    28    23    24   ar
    29    24    25   ar
    30    25    26   ar
    31    26    27    1
    32    14     9   ar
    33    19    15   ar
    34     8     3    1
    35    26    21   ar
    36    32    28   ar
@<TRIPOS>MOLECULE
*****
 32 36 0 0 0
SMALL
GASTEIGER

@<TRIPOS>ATOM
      1 O          61.7021   85.5538   13.0434 O.2     1  UNL1       -0.2699
      2 C          62.3484   84.5351   12.1520 C.2     1  UNL1        0.2506
      3 N          62.6256   84.8640   10.7150 N.am    1  UNL1       -0.2723
      4 C          63.2719   83.8454    9.8236 C.3     1  UNL1        0.1257
      5 C          63.5490   84.1743    8.3865 C.3     1  UNL1        0.1637
      6 O          63.1798   85.5219    7.8410 O.3     1  UNL1       -0.3502
      7 C          62.5334   86.5405    8.7324 C.3     1  UNL1        0.1622
      8 C          62.2563   86.2116   10.1693 C.3     1  UNL1        0.1097
      9 C          62.7177   83.1875   12.6977 C.ar    1  UNL1        0.0729
     10 C          62.4672   81.9538   11.8820 C.ar    1  UNL1        0.0061
     11 C          62.8364   80.6062   12.4276 C.ar    1  UNL1        0.0002
     12 C          63.4560   80.4924   13.7889 C.ar    1  UNL1        0.0016
     13 C          63.7065   81.7261   14.6045 C.ar    1  UNL1        0.0211
     14 C          63.3373   83.0736   14.0589 C.ar    1  UNL1        0.1072
     15 N          63.5878   84.3073   14.8746 N.ar    1  UNL1       -0.1477
     16 N          62.7980   84.7487   16.0710 N.ar    1  UNL1       -0.1447
     17 C          63.3941   86.0304   16.5729 C.ar    1  UNL1        0.1446
     18 C          64.5523   86.3812   15.6866 C.ar    1  UNL1        0.1446
     19 N          64.6720   85.3163   14.6370 N.ar    1  UNL1       -0.1447
     20 C          61.6100   87.2303   11.0607 C.3     1  UNL1        0.0510
     21 C          62.1444   88.6310   11.1096 C.ar    1  UNL1        0.0086
     22 C          62.9360   89.0906   12.2979 C.ar    1  UNL1        0.0189
     23 C          63.4704   90.4914   12.3468 C.ar    1  UNL1        0.1027
     24 C          63.2132   91.4325   11.2074 C.ar    1  UNL1        0.0232
     25 C          62.4215   90.9727   10.0191 C.ar    1  UNL1        0.0309
     26 C          61.8871   89.5720    9.9702 C.ar    1  UNL1        0.1363
     27 F          61.0955   89.1124    8.7819 F       1  UNL1       -0.2045
     28 N          64.2620   90.9510   13.5350 N.ar    1  UNL1       -0.1478
     29 N          63.7235   91.1892   14.9146 N.ar    1  UNL1       -0.1447
     30 C          64.8598   91.6386   15.7846 C.ar    1  UNL1        0.1446
     31 C          66.1007   91.6781   14.9426 C.ar    1  UNL1        0.1446
     32 N          65.7312   91.2532   13.5524 N.ar    1  UNL1       -0.1447
@<TRIPOS>BOND
     1     1     2    2
     2     2     9    1
     3     9    10   ar
     4    10    11   ar
     5    11    12   ar
     6    12    13   ar
     7    13    14   ar
     8    14    15    1
     9    15    16   ar
    10    16    17   ar
    11    17    18   ar
    12    18    19   ar
    13     2     3   am
    14     3     4    1
    15     4     5    1
    16     5     6    1
    17     6     7    1
    18     7     8    1
    19     8    20    1
    20    20    21    1
    21    21    22   ar
    22    22    23   ar
    23    23    28    1
    24    28    29   ar
    25    29    30   ar
    26    30    31   ar
    27    31    32   ar
    28    23    24   ar
    29    24    25   ar
    30    25    26   ar
    31    26    27    1
    32    14     9   ar
    33    19    15   ar
    34     8     3    1
    35    26    21   ar
    36    32    28   ar
@<TRIPOS>MOLECULE
*****
 32 36 0 0 0
SMALL
GASTEIGER

@<TRIPOS>ATOM
      1 O          60.6830   86.7878   11.7043 O.2     1  UNL1       -0.2699
      2 C          61.0520   86.6362   10.2584 C.2     1  UNL1        0.2506
      3 N          62.0739   85.6177    9.8479 N.am    1  UNL1       -0.2723
      4 C          62.4429   85.4661    8.4020 C.3     1  UNL1        0.1257
      5 C          63.4649   84.4476    7.9916 C.3     1  UNL1        0.1637
      6 O          64.1176   83.5807    9.0271 O.3     1  UNL1       -0.3502
      7 C          63.7486   83.7323   10.4731 C.3     1  UNL1        0.1622
      8 C          62.7267   84.7508   10.8835 C.3     1  UNL1        0.1097
      9 C          60.3992   87.5031    9.2228 C.ar    1  UNL1        0.0729
     10 C          59.5119   86.8884    8.1812 C.ar    1  UNL1        0.0061
     11 C          58.8591   87.7553    7.1457 C.ar    1  UNL1        0.0002
     12 C          59.0935   89.2368    7.1517 C.ar    1  UNL1        0.0016
     13 C          59.9808   89.8515    8.1933 C.ar    1  UNL1        0.0211
     14 C          60.6337   88.9846    9.2288 C.ar    1  UNL1        0.1072
     15 N          61.5209   89.5993   10.2704 N.ar    1  UNL1       -0.1477
     16 N          61.1641   89.8278   11.7093 N.ar    1  UNL1       -0.1447
     17 C          62.3435   90.4632   12.3842 C.ar    1  UNL1        0.1446
     18 C          63.4293   90.6273   11.3623 C.ar    1  UNL1        0.1446
     19 N          62.9209   90.0934   10.0560 N.ar    1  UNL1       -0.1447
     20 C          62.3576   84.9024   12.3295 C.3     1  UNL1        0.0510
     21 C          63.3614   85.4368   13.3077 C.ar    1  UNL1        0.0086
     22 C          63.3596   86.8940   13.6634 C.ar    1  UNL1        0.0189
     23 C          64.3633   87.4285   14.6416 C.ar    1  UNL1        0.1027
     24 C          65.3688   86.5058   15.2641 C.ar    1  UNL1        0.0232
     25 C          65.3706   85.0485   14.9083 C.ar    1  UNL1        0.0309
     26 C          64.3669   84.5141   13.9301 C.ar    1  UNL1        0.1363
     27 F          64.3687   83.0569   13.5744 F       1  UNL1       -0.2045
     28 N          64.3616   88.8857   14.9973 N.ar    1  UNL1       -0.1478
     29 N          63.4964   89.5392   16.0338 N.ar    1  UNL1       -0.1447
     30 C          63.8247   91.0026   16.0561 C.ar    1  UNL1        0.1446
     31 C          64.8929   91.2536   15.0333 C.ar    1  UNL1        0.1446
     32 N          65.2246   89.9453   14.3789 N.ar    1  UNL1       -0.1447
@<TRIPOS>BOND
     1     1     2    2
     2     2     9    1
     3     9    10   ar
     4    10    11   ar
     5    11    12   ar
     6    12    13   ar
     7    13    14   ar
     8    14    15    1
     9    15    16   ar
    10    16    17   ar
    11    17    18   ar
    12    18    19   ar
    13     2     3   am
    14     3     4    1
    15     4     5    1
    16     5     6    1
    17     6     7    1
    18     7     8    1
    19     8    20    1
    20    20    21    1
    21    21    22   ar
    22    22    23   ar
    23    23    28    1
    24    28    29   ar
    25    29    30   ar
    26    30    31   ar
    27    31    32   ar
    28    23    24   ar
    29    24    25   ar
    30    25    26   ar
    31    26    27    1
    32    14     9   ar
    33    19    15   ar
    34     8     3    1
    35    26    21   ar
    36    32    28   ar
@<TRIPOS>MOLECULE
*****
 32 36 0 0 0
SMALL
GASTEIGER

@<TRIPOS>ATOM
      1 O          62.5056   90.2099   11.5542 O.2     1  UNL1       -0.2699
      2 C          62.6300   88.7156   11.5958 C.2     1  UNL1        0.2506
      3 N          63.3230   88.0526   12.7491 N.am    1  UNL1       -0.2723
      4 C          63.4474   86.5583   12.7907 C.3     1  UNL1        0.1257
      5 C          64.1404   85.8953   13.9441 C.3     1  UNL1        0.1637
      6 O          64.7089   86.7265   15.0558 O.3     1  UNL1       -0.3502
      7 C          64.5845   88.2207   15.0141 C.3     1  UNL1        0.1622
      8 C          63.8915   88.8838   13.8608 C.3     1  UNL1        0.1097
      9 C          62.0614   87.8844   10.4841 C.ar    1  UNL1        0.0729
     10 C          62.9461   86.9392    9.7264 C.ar    1  UNL1        0.0061
     11 C          62.3776   86.1080    8.6147 C.ar    1  UNL1        0.0002
     12 C          60.9245   86.2221    8.2607 C.ar    1  UNL1        0.0016
     13 C          60.0398   87.1673    9.0183 C.ar    1  UNL1        0.0211
     14 C          60.6083   87.9985   10.1300 C.ar    1  UNL1        0.1072
     15 N          59.7237   88.9437   10.8876 N.ar    1  UNL1       -0.1477
     16 N          59.4952   90.3900   10.5620 N.ar    1  UNL1       -0.1447
     17 C          58.5425   90.9488   11.5770 C.ar    1  UNL1        0.1446
     18 C          58.1823   89.8478   12.5300 C.ar    1  UNL1        0.1446
     19 N          58.9123   88.6086   12.1039 N.ar    1  UNL1       -0.1447
     20 C          63.7671   90.3780   13.8192 C.3     1  UNL1        0.0510
     21 C          64.9994   91.2331   13.8016 C.ar    1  UNL1        0.0086
     22 C          65.6343   91.6067   12.4950 C.ar    1  UNL1        0.0189
     23 C          66.8666   92.4618   12.4773 C.ar    1  UNL1        0.1027
     24 C          67.4640   92.9432   13.7663 C.ar    1  UNL1        0.0232
     25 C          66.8290   92.5694   15.0729 C.ar    1  UNL1        0.0309
     26 C          65.5968   91.7144   15.0906 C.ar    1  UNL1        0.1363
     27 F          64.9619   91.3407   16.3972 F       1  UNL1       -0.2045
     28 N          67.5015   92.8355   11.1707 N.ar    1  UNL1       -0.1478
     29 N          68.4578   91.9911   10.3818 N.ar    1  UNL1       -0.1447
     30 C          68.8389   92.7529    9.1471 C.ar    1  UNL1        0.1446
     31 C          68.1182   94.0682    9.1730 C.ar    1  UNL1        0.1446
     32 N          67.2916   94.1192   10.4237 N.ar    1  UNL1       -0.1447
@<TRIPOS>BOND
     1     1     2    2
     2     2     9    1
     3     9    10   ar
     4    10    11   ar
     5    11    12   ar
     6    12    13   ar
     7    13    14   ar
     8    14    15    1
     9    15    16   ar
    10    16    17   ar
    11    17    18   ar
    12    18    19   ar
    13     2     3   am
    14     3     4    1
    15     4     5    1
    16     5     6    1
    17     6     7    1
    18     7     8    1
    19     8    20    1
    20    20    21    1
    21    21    22   ar
    22    22    23   ar
    23    23    28    1
    24    28    29   ar
    25    29    30   ar
    26    30    31   ar
    27    31    32   ar
    28    23    24   ar
    29    24    25   ar
    30    25    26   ar
    31    26    27    1
    32    14     9   ar
    33    19    15   ar
    34     8     3    1
    35    26    21   ar
    36    32    28   ar
@<TRIPOS>MOLECULE
*****
 32 36 0 0 0
SMALL
GASTEIGER

@<TRIPOS>ATOM
      1 O          63.6255   88.6138   12.3835 O.2     1  UNL1       -0.2699
      2 C          63.5373   87.5188   13.4047 C.2     1  UNL1        0.2506
      3 N          63.4112   87.8589   14.8602 N.am    1  UNL1       -0.2723
      4 C          63.3230   86.7639   15.8814 C.3     1  UNL1        0.1257
      5 C          63.1970   87.1041   17.3370 C.3     1  UNL1        0.1637
      6 O          63.1591   88.5394   17.7711 O.3     1  UNL1       -0.3502
      7 C          63.2473   89.6345   16.7498 C.3     1  UNL1        0.1622
      8 C          63.3734   89.2943   15.2944 C.3     1  UNL1        0.1097
      9 C          63.5751   86.0834   12.9705 C.ar    1  UNL1        0.0729
     10 C          64.4308   85.0984   13.7103 C.ar    1  UNL1        0.0061
     11 C          64.4687   83.6631   13.2762 C.ar    1  UNL1        0.0002
     12 C          63.6508   83.2129   12.1022 C.ar    1  UNL1        0.0016
     13 C          62.7951   84.1980   11.3623 C.ar    1  UNL1        0.0211
     14 C          62.7572   85.6332   11.7965 C.ar    1  UNL1        0.1072
     15 N          61.9015   86.6183   11.0567 N.ar    1  UNL1       -0.1477
     16 N          60.6451   87.2560   11.5713 N.ar    1  UNL1       -0.1447
     17 C          60.1190   88.1704   10.5050 C.ar    1  UNL1        0.1446
     18 C          61.0502   88.0979    9.3313 C.ar    1  UNL1        0.1446
     19 N          62.1518   87.1386    9.6723 N.ar    1  UNL1       -0.1447
     20 C          63.4616   90.3894   14.2731 C.3     1  UNL1        0.0510
     21 C          64.6788   91.2639   14.2144 C.ar    1  UNL1        0.0086
     22 C          65.3491   91.5289   12.8990 C.ar    1  UNL1        0.0189
     23 C          66.5665   92.4034   12.8402 C.ar    1  UNL1        0.1027
     24 C          67.1134   93.0129   14.0969 C.ar    1  UNL1        0.0232
     25 C          66.4430   92.7479   15.4124 C.ar    1  UNL1        0.0309
     26 C          65.2258   91.8734   15.4711 C.ar    1  UNL1        0.1363
     27 F          64.5555   91.6084   16.7866 F       1  UNL1       -0.2045
     28 N          67.2368   92.6684   11.5248 N.ar    1  UNL1       -0.1478
     29 N          68.3939   91.9028   10.9549 N.ar    1  UNL1       -0.1447
     30 C          68.7400   92.5067    9.6262 C.ar    1  UNL1        0.1446
     31 C          67.7966   93.6456    9.3748 C.ar    1  UNL1        0.1446
     32 N          66.8676   93.7455   10.5482 N.ar    1  UNL1       -0.1447
@<TRIPOS>BOND
     1     1     2    2
     2     2     9    1
     3     9    10   ar
     4    10    11   ar
     5    11    12   ar
     6    12    13   ar
     7    13    14   ar
     8    14    15    1
     9    15    16   ar
    10    16    17   ar
    11    17    18   ar
    12    18    19   ar
    13     2     3   am
    14     3     4    1
    15     4     5    1
    16     5     6    1
    17     6     7    1
    18     7     8    1
    19     8    20    1
    20    20    21    1
    21    21    22   ar
    22    22    23   ar
    23    23    28    1
    24    28    29   ar
    25    29    30   ar
    26    30    31   ar
    27    31    32   ar
    28    23    24   ar
    29    24    25   ar
    30    25    26   ar
    31    26    27    1
    32    14     9   ar
    33    19    15   ar
    34     8     3    1
    35    26    21   ar
    36    32    28   ar
@<TRIPOS>MOLECULE
*****
 32 36 0 0 0
SMALL
GASTEIGER

@<TRIPOS>ATOM
      1 O          63.4913   88.1833   11.8456 O.2     1  UNL1       -0.2699
      2 C          63.4965   87.5245   13.1931 C.2     1  UNL1        0.2506
      3 N          63.3872   88.3576   14.4357 N.am    1  UNL1       -0.2723
      4 C          63.3925   87.6988   15.7833 C.3     1  UNL1        0.1257
      5 C          63.2832   88.5320   17.0258 C.3     1  UNL1        0.1637
      6 O          63.1687   90.0239   16.9208 O.3     1  UNL1       -0.3502
      7 C          63.1634   90.6827   15.5732 C.3     1  UNL1        0.1622
      8 C          63.2727   89.8496   14.3307 C.3     1  UNL1        0.1097
      9 C          63.6111   86.0325   13.2981 C.ar    1  UNL1        0.0729
     10 C          64.4223   85.4183   14.4003 C.ar    1  UNL1        0.0061
     11 C          64.5369   83.9265   14.5053 C.ar    1  UNL1        0.0002
     12 C          63.8402   83.0487   13.5082 C.ar    1  UNL1        0.0016
     13 C          63.0290   83.6629   12.4061 C.ar    1  UNL1        0.0211
     14 C          62.9144   85.1548   12.3011 C.ar    1  UNL1        0.1072
     15 N          62.1032   85.7690   11.1989 N.ar    1  UNL1       -0.1477
     16 N          60.8780   86.6167   11.3732 N.ar    1  UNL1       -0.1447
     17 C          60.3923   87.0149   10.0110 C.ar    1  UNL1        0.1446
     18 C          61.3173   86.4133    8.9949 C.ar    1  UNL1        0.1446
     19 N          62.3746   85.6433    9.7291 N.ar    1  UNL1       -0.1447
     20 C          63.2674   90.5084   12.9831 C.3     1  UNL1        0.0510
     21 C          64.4050   91.3987   12.5791 C.ar    1  UNL1        0.0086
     22 C          65.4757   91.7443   13.5711 C.ar    1  UNL1        0.0189
     23 C          66.6133   92.6347   13.1671 C.ar    1  UNL1        0.1027
     24 C          66.6802   93.1794   11.7711 C.ar    1  UNL1        0.0232
     25 C          65.6094   92.8337   10.7791 C.ar    1  UNL1        0.0309
     26 C          64.4718   91.9434   11.1831 C.ar    1  UNL1        0.1363
     27 F          63.4011   91.5978   10.1911 F       1  UNL1       -0.2045
     28 N          67.6841   92.9803   14.1590 N.ar    1  UNL1       -0.1478
     29 N          67.5341   93.9018   15.3330 N.ar    1  UNL1       -0.1447
     30 C          68.8501   93.9561   16.0508 C.ar    1  UNL1        0.1446
     31 C          69.8134   93.0681   15.3204 C.ar    1  UNL1        0.1446
     32 N          69.0928   92.4650   14.1512 N.ar    1  UNL1       -0.1447
@<TRIPOS>BOND
     1     1     2    2
     2     2     9    1
     3     9    10   ar
     4    10    11   ar
     5    11    12   ar
     6    12    13   ar
     7    13    14   ar
     8    14    15    1
     9    15    16   ar
    10    16    17   ar
    11    17    18   ar
    12    18    19   ar
    13     2     3   am
    14     3     4    1
    15     4     5    1
    16     5     6    1
    17     6     7    1
    18     7     8    1
    19     8    20    1
    20    20    21    1
    21    21    22   ar
    22    22    23   ar
    23    23    28    1
    24    28    29   ar
    25    29    30   ar
    26    30    31   ar
    27    31    32   ar
    28    23    24   ar
    29    24    25   ar
    30    25    26   ar
    31    26    27    1
    32    14     9   ar
    33    19    15   ar
    34     8     3    1
    35    26    21   ar
    36    32    28   ar
@<TRIPOS>MOLECULE
*****
 32 36 0 0 0
SMALL
GASTEIGER

@<TRIPOS>ATOM
      1 O          65.0228   85.7376   13.2978 O.2     1  UNL1       -0.2699
      2 C          63.9947   85.0203   14.1215 C.2     1  UNL1        0.2506
      3 N          63.3839   85.6960   15.3133 N.am    1  UNL1       -0.2723
      4 C          62.3558   84.9787   16.1370 C.3     1  UNL1        0.1257
      5 C          61.7450   85.6544   17.3288 C.3     1  UNL1        0.1637
      6 O          62.1624   87.0473   17.6969 O.3     1  UNL1       -0.3502
      7 C          63.1905   87.7646   16.8732 C.3     1  UNL1        0.1622
      8 C          63.8013   87.0889   15.6814 C.3     1  UNL1        0.1097
      9 C          63.5773   83.6273   13.7533 C.ar    1  UNL1        0.0729
     10 C          63.9170   82.4791   14.6568 C.ar    1  UNL1        0.0061
     11 C          63.4996   81.0862   14.2887 C.ar    1  UNL1        0.0002
     12 C          62.7427   80.8415   13.0171 C.ar    1  UNL1        0.0016
     13 C          62.4031   81.9896   12.1136 C.ar    1  UNL1        0.0211
     14 C          62.8204   83.3826   12.4817 C.ar    1  UNL1        0.1072
     15 N          62.4808   84.5307   11.5782 N.ar    1  UNL1       -0.1477
     16 N          61.6119   85.7019   11.9294 N.ar    1  UNL1       -0.1447
     17 C          61.5445   86.6044   10.7331 C.ar    1  UNL1        0.1446
     18 C          62.3717   85.9909    9.6425 C.ar    1  UNL1        0.1446
     19 N          62.9504   84.7093   10.1648 N.ar    1  UNL1       -0.1447
     20 C          64.8294   87.8062   14.8578 C.3     1  UNL1        0.0510
     21 C          64.4377   89.0068   14.0484 C.ar    1  UNL1        0.0086
     22 C          63.3216   88.9073   13.0512 C.ar    1  UNL1        0.0189
     23 C          62.9298   90.1079   12.2418 C.ar    1  UNL1        0.1027
     24 C          63.6541   91.4079   12.4296 C.ar    1  UNL1        0.0232
     25 C          64.7703   91.5074   13.4268 C.ar    1  UNL1        0.0309
     26 C          65.1620   90.3068   14.2362 C.ar    1  UNL1        0.1363
     27 F          66.2781   90.4063   15.2334 F       1  UNL1       -0.2045
     28 N          61.8137   90.0084   11.2446 N.ar    1  UNL1       -0.1478
     29 N          61.9678   89.9099    9.7558 N.ar    1  UNL1       -0.1447
     30 C          60.5969   89.8306    9.1522 C.ar    1  UNL1        0.1446
     31 C          59.5955   89.8802   10.2680 C.ar    1  UNL1        0.1446
     32 N          60.3476   89.9901   11.5611 N.ar    1  UNL1       -0.1447
@<TRIPOS>BOND
     1     1     2    2
     2     2     9    1
     3     9    10   ar
     4    10    11   ar
     5    11    12   ar
     6    12    13   ar
     7    13    14   ar
     8    14    15    1
     9    15    16   ar
    10    16    17   ar
    11    17    18   ar
    12    18    19   ar
    13     2     3   am
    14     3     4    1
    15     4     5    1
    16     5     6    1
    17     6     7    1
    18     7     8    1
    19     8    20    1
    20    20    21    1
    21    21    22   ar
    22    22    23   ar
    23    23    28    1
    24    28    29   ar
    25    29    30   ar
    26    30    31   ar
    27    31    32   ar
    28    23    24   ar
    29    24    25   ar
    30    25    26   ar
    31    26    27    1
    32    14     9   ar
    33    19    15   ar
    34     8     3    1
    35    26    21   ar
    36    32    28   ar
@<TRIPOS>MOLECULE
*****
 32 36 0 0 0
SMALL
GASTEIGER

@<TRIPOS>ATOM
      1 O          62.9480   87.8499   12.5544 O.2     1  UNL1       -0.2699
      2 C          62.7248   88.9979   11.6152 C.2     1  UNL1        0.2506
      3 N          61.6793   88.8984   10.5443 N.am    1  UNL1       -0.2723
      4 C          61.4561   90.0465    9.6050 C.3     1  UNL1        0.1257
      5 C          60.4105   89.9470    8.5340 C.3     1  UNL1        0.1637
      6 O          59.5882   88.6994    8.4023 O.3     1  UNL1       -0.3502
      7 C          59.8113   87.5514    9.3416 C.3     1  UNL1        0.1622
      8 C          60.8569   87.6509   10.4125 C.3     1  UNL1        0.1097
      9 C          63.5472   90.2455   11.7469 C.ar    1  UNL1        0.0729
     10 C          63.8372   91.0838   10.5373 C.ar    1  UNL1        0.0061
     11 C          64.6596   92.3313   10.6690 C.ar    1  UNL1        0.0002
     12 C          65.1919   92.7405   12.0103 C.ar    1  UNL1        0.0016
     13 C          64.9018   91.9023   13.2199 C.ar    1  UNL1        0.0211
     14 C          64.0794   90.6548   13.0882 C.ar    1  UNL1        0.1072
     15 N          63.7894   89.8165   14.2978 N.ar    1  UNL1       -0.1477
     16 N          62.7409   90.0960   15.3335 N.ar    1  UNL1       -0.1447
     17 C          62.8004   89.0038   16.3599 C.ar    1  UNL1        0.1446
     18 C          63.8856   88.0493   15.9587 C.ar    1  UNL1        0.1446
     19 N          64.4968   88.5515   14.6842 N.ar    1  UNL1       -0.1447
     20 C          61.0800   86.5028   11.3518 C.3     1  UNL1        0.0510
     21 C          61.9790   85.3706   10.9520 C.ar    1  UNL1        0.0086
     22 C          62.1106   84.1683   11.8391 C.ar    1  UNL1        0.0189
     23 C          63.0095   83.0359   11.4393 C.ar    1  UNL1        0.1027
     24 C          63.7769   83.1060   10.1524 C.ar    1  UNL1        0.0232
     25 C          63.6453   84.3084    9.2652 C.ar    1  UNL1        0.0309
     26 C          62.7463   85.4406    9.6650 C.ar    1  UNL1        0.1363
     27 F          62.6148   86.6429    8.7778 F       1  UNL1       -0.2045
     28 N          63.1411   81.8336   12.3265 N.ar    1  UNL1       -0.1478
     29 N          62.5001   80.4965   12.1001 N.ar    1  UNL1       -0.1447
     30 C          62.8996   79.5938   13.2295 C.ar    1  UNL1        0.1446
     31 C          63.7875   80.3730   14.1539 C.ar    1  UNL1        0.1446
     32 N          63.9367   81.7573   13.5958 N.ar    1  UNL1       -0.1447
@<TRIPOS>BOND
     1     1     2    2
     2     2     9    1
     3     9    10   ar
     4    10    11   ar
     5    11    12   ar
     6    12    13   ar
     7    13    14   ar
     8    14    15    1
     9    15    16   ar
    10    16    17   ar
    11    17    18   ar
    12    18    19   ar
    13     2     3   am
    14     3     4    1
    15     4     5    1
    16     5     6    1
    17     6     7    1
    18     7     8    1
    19     8    20    1
    20    20    21    1
    21    21    22   ar
    22    22    23   ar
    23    23    28    1
    24    28    29   ar
    25    29    30   ar
    26    30    31   ar
    27    31    32   ar
    28    23    24   ar
    29    24    25   ar
    30    25    26   ar
    31    26    27    1
    32    14     9   ar
    33    19    15   ar
    34     8     3    1
    35    26    21   ar
    36    32    28   ar
