@<TRIPOS>MOLECULE
*****
 19 20 0 0 0
SMALL
GASTEIGER

@<TRIPOS>ATOM
      1 C          63.5358   83.3769   12.2476 C.2     1  UNL1        0.0107
      2 C          64.1501   83.0476   10.9194 C.2     1  UNL1        0.0054
      3 C          63.7859   83.8495    9.7052 C.2     1  UNL1        0.0400
      4 C          62.8074   84.9807    9.8192 C.2     1  UNL1        0.1888
      5 N          62.2600   85.9404    8.8047 N.2     1  UNL1       -0.0675
      6 C          61.3074   86.8629    9.5059 C.2     1  UNL1        0.4288
      7 N          61.2661   86.4732   10.9538 N.2     1  UNL1       -0.0713
      8 C          62.1932   85.3100   11.1474 C.2     1  UNL1        0.1750
      9 C          62.5574   84.5080   12.3616 C.3     1  UNL1        0.0997
     10 N          60.5322   87.9790    8.8707 N.am    1  UNL1       -0.1353
     11 C          59.5098   87.6764    7.8157 C.2     1  UNL1        0.4699
     12 O          59.2626   86.2576    7.3959 O.2     1  UNL1       -0.2094
     13 H          60.6945   88.9101    9.1462 H       1  UNL1        0.2579
     14 O          58.7346   88.7924    7.1804 O.3     1  UNL1       -0.4187
     15 C          59.4091   89.7170    6.2108 C.3     1  UNL1        0.2589
     16 S          63.9000   82.5749   13.4618 S.3     1  UNL1       -0.1176
     17 C          63.7497   81.0826   13.4478 C.3     1  UNL1        0.0619
     18 C          61.2393   81.0887   14.1172 C.3     1  UNL1        0.0009
     19 C          62.3839   80.4670   13.3732 C.3     1  UNL1        0.0120
@<TRIPOS>BOND
     1    18    19    1
     2    19    17    1
     3    17    16    1
     4    16     1    1
     5     1     2    2
     6     2     3    1
     7     3     4    2
     8     4     5    1
     9     5     6    2
    10     6    10    1
    11    10    11   am
    12    11    12    2
    13    11    14    1
    14    14    15    1
    15     6     7    1
    16     7     8    2
    17     8     9    1
    18     9     1    1
    19     8     4    1
    20    10    13    1
@<TRIPOS>MOLECULE
*****
 19 20 0 0 0
SMALL
GASTEIGER

@<TRIPOS>ATOM
      1 C          65.6033   91.7935   13.1559 C.2     1  UNL1        0.0107
      2 C          65.0639   90.8269   14.1682 C.2     1  UNL1        0.0054
      3 C          63.8129   90.0532   13.8741 C.2     1  UNL1        0.0400
      4 C          63.1014   90.2460   12.5678 C.2     1  UNL1        0.1888
      5 N          61.8572   89.6284   12.0018 N.2     1  UNL1       -0.0675
      6 C          61.6276   90.2133   10.6397 C.2     1  UNL1        0.4288
      7 N          62.7300   91.1924   10.3639 N.2     1  UNL1       -0.0713
      8 C          63.6409   91.2126   11.5556 C.2     1  UNL1        0.1750
      9 C          64.8918   91.9863   11.8496 C.3     1  UNL1        0.0997
     10 N          60.4945   89.8779    9.7157 N.am    1  UNL1       -0.1353
     11 C          60.4761   88.5603    8.9991 C.2     1  UNL1        0.4699
     12 O          61.5907   87.5781    9.2065 O.2     1  UNL1       -0.2094
     13 H          59.7630   90.5226    9.5796 H       1  UNL1        0.2579
     14 O          59.3431   88.2249    8.0751 O.3     1  UNL1       -0.4187
     15 C          59.0743   86.7961    7.7057 C.3     1  UNL1        0.2589
     16 S          66.8543   92.5672   13.4500 S.3     1  UNL1       -0.1176
     17 C          66.8560   93.6079   14.5302 C.3     1  UNL1        0.0619
     18 C          68.3184   92.1506   16.1074 C.3     1  UNL1        0.0009
     19 C          67.8165   93.4971   15.6770 C.3     1  UNL1        0.0120
@<TRIPOS>BOND
     1    18    19    1
     2    19    17    1
     3    17    16    1
     4    16     1    1
     5     1     2    2
     6     2     3    1
     7     3     4    2
     8     4     5    1
     9     5     6    2
    10     6    10    1
    11    10    11   am
    12    11    12    2
    13    11    14    1
    14    14    15    1
    15     6     7    1
    16     7     8    2
    17     8     9    1
    18     9     1    1
    19     8     4    1
    20    10    13    1
@<TRIPOS>MOLECULE
*****
 19 20 0 0 0
SMALL
GASTEIGER

@<TRIPOS>ATOM
      1 C          65.5341   92.8677   11.6723 C.2     1  UNL1        0.0107
      2 C          64.5014   92.2414   10.7827 C.2     1  UNL1        0.0054
      3 C          63.6611   91.1079   11.2916 C.2     1  UNL1        0.0400
      4 C          63.8533   90.6007   12.6901 C.2     1  UNL1        0.1888
      5 N          63.1784   89.5063   13.4625 N.2     1  UNL1       -0.0675
      6 C          63.7939   89.4562   14.8295 C.2     1  UNL1        0.4288
      7 N          64.8493   90.5197   14.9019 N.2     1  UNL1       -0.0713
      8 C          64.8860   91.2270   13.5796 C.2     1  UNL1        0.1750
      9 C          65.7264   92.3605   13.0707 C.3     1  UNL1        0.0997
     10 N          63.4197   88.5089   15.9308 N.am    1  UNL1       -0.1353
     11 C          63.6383   87.0350   15.7588 C.2     1  UNL1        0.4699
     12 O          64.2312   86.5083   14.4855 O.2     1  UNL1       -0.2094
     13 H          63.0306   88.8546   16.7665 H       1  UNL1        0.2579
     14 O          63.2642   86.0877   16.8599 O.3     1  UNL1       -0.4187
     15 C          62.6598   86.6132   18.1282 C.3     1  UNL1        0.2589
     16 S          66.3745   94.0012   11.1634 S.3     1  UNL1       -0.1176
     17 C          66.6671   94.1183    9.6969 C.3     1  UNL1        0.0619
     18 C          68.4556   92.2490    9.4578 C.3     1  UNL1        0.0009
     19 C          67.9805   93.6389    9.1535 C.3     1  UNL1        0.0120
@<TRIPOS>BOND
     1    18    19    1
     2    19    17    1
     3    17    16    1
     4    16     1    1
     5     1     2    2
     6     2     3    1
     7     3     4    2
     8     4     5    1
     9     5     6    2
    10     6    10    1
    11    10    11   am
    12    11    12    2
    13    11    14    1
    14    14    15    1
    15     6     7    1
    16     7     8    2
    17     8     9    1
    18     9     1    1
    19     8     4    1
    20    10    13    1
@<TRIPOS>MOLECULE
*****
 19 20 0 0 0
SMALL
GASTEIGER

@<TRIPOS>ATOM
      1 C          63.7871   82.9886   11.6439 C.2     1  UNL1        0.0107
      2 C          64.1127   83.0510   10.1810 C.2     1  UNL1        0.0054
      3 C          63.5251   84.1355    9.3275 C.2     1  UNL1        0.0400
      4 C          62.6118   85.1576    9.9368 C.2     1  UNL1        0.1888
      5 N          61.8883   86.3336    9.3508 N.2     1  UNL1       -0.0675
      6 C          61.1156   86.9980   10.4514 C.2     1  UNL1        0.4288
      7 N          61.3615   86.2326   11.7178 N.2     1  UNL1       -0.0713
      8 C          62.2862   85.0952   11.3997 C.2     1  UNL1        0.1750
      9 C          62.8739   84.0106   12.2532 C.3     1  UNL1        0.0997
     10 N          60.2490   88.2143   10.3104 N.am    1  UNL1       -0.1353
     11 C          60.7725   89.5595   10.7182 C.2     1  UNL1        0.4699
     12 O          62.1626   89.6884   11.2670 O.2     1  UNL1       -0.2094
     13 H          59.3367   88.1296    9.9502 H       1  UNL1        0.2579
     14 O          59.9060   90.7757   10.5772 O.3     1  UNL1       -0.4187
     15 C          58.8487   91.0661   11.6008 C.3     1  UNL1        0.2589
     16 S          64.3747   81.9041   12.4974 S.3     1  UNL1       -0.1176
     17 C          63.5737   81.3177   13.6219 C.3     1  UNL1        0.0619
     18 C          61.0415   80.8867   14.0123 C.3     1  UNL1        0.0009
     19 C          62.3287   80.5347   13.3271 C.3     1  UNL1        0.0120
@<TRIPOS>BOND
     1    18    19    1
     2    19    17    1
     3    17    16    1
     4    16     1    1
     5     1     2    2
     6     2     3    1
     7     3     4    2
     8     4     5    1
     9     5     6    2
    10     6    10    1
    11    10    11   am
    12    11    12    2
    13    11    14    1
    14    14    15    1
    15     6     7    1
    16     7     8    2
    17     8     9    1
    18     9     1    1
    19     8     4    1
    20    10    13    1
@<TRIPOS>MOLECULE
*****
 19 20 0 0 0
SMALL
GASTEIGER

@<TRIPOS>ATOM
      1 C          63.9678   89.6230   15.1186 C.2     1  UNL1        0.0107
      2 C          63.2873   89.4922   16.4489 C.2     1  UNL1        0.0054
      3 C          63.0237   88.1330   17.0261 C.2     1  UNL1        0.0400
      4 C          63.4405   86.9046   16.2729 C.2     1  UNL1        0.1888
      5 N          63.3143   85.4434   16.5873 N.2     1  UNL1       -0.0675
      6 C          63.9168   84.6711   15.4513 C.2     1  UNL1        0.4288
      7 N          64.4153   85.6550   14.4347 N.2     1  UNL1       -0.0713
      8 C          64.1209   87.0354   14.9426 C.2     1  UNL1        0.1750
      9 C          64.3846   88.3946   14.3654 C.3     1  UNL1        0.0997
     10 N          64.0052   83.1771   15.3496 N.am    1  UNL1       -0.1353
     11 C          63.2078   82.4476   14.3095 C.2     1  UNL1        0.4699
     12 O          62.3219   83.2122   13.3710 O.2     1  UNL1       -0.2094
     13 H          64.5867   82.6753   15.9656 H       1  UNL1        0.2579
     14 O          63.2961   80.9537   14.2078 O.3     1  UNL1       -0.4187
     15 C          62.5801   80.2334   13.1040 C.3     1  UNL1        0.2589
     16 S          64.2314   90.9822   14.5414 S.3     1  UNL1       -0.1176
     17 C          65.5638   91.2896   13.9248 C.3     1  UNL1        0.0619
     18 C          67.9399   92.2455   14.3613 C.3     1  UNL1        0.0009
     19 C          66.7854   91.3888   14.7896 C.3     1  UNL1        0.0120
@<TRIPOS>BOND
     1    18    19    1
     2    19    17    1
     3    17    16    1
     4    16     1    1
     5     1     2    2
     6     2     3    1
     7     3     4    2
     8     4     5    1
     9     5     6    2
    10     6    10    1
    11    10    11   am
    12    11    12    2
    13    11    14    1
    14    14    15    1
    15     6     7    1
    16     7     8    2
    17     8     9    1
    18     9     1    1
    19     8     4    1
    20    10    13    1
@<TRIPOS>MOLECULE
*****
 19 20 0 0 0
SMALL
GASTEIGER

@<TRIPOS>ATOM
      1 C          62.0517   89.0103   11.1184 C.2     1  UNL1        0.0107
      2 C          62.1856   90.1447   10.1462 C.2     1  UNL1        0.0054
      3 C          63.1452   91.2631   10.4261 C.2     1  UNL1        0.0400
      4 C          63.9710   91.2471   11.6782 C.2     1  UNL1        0.1888
      5 N          64.9927   92.2029   12.2190 N.2     1  UNL1       -0.0675
      6 C          65.4902   91.6592   13.5255 C.2     1  UNL1        0.4288
      7 N          64.7761   90.3674   13.7922 N.2     1  UNL1       -0.0713
      8 C          63.8371   90.1127   12.6504 C.2     1  UNL1        0.1750
      9 C          62.8774   88.9943   12.3705 C.3     1  UNL1        0.0997
     10 N          66.5211   92.2957   14.4101 N.am    1  UNL1       -0.1353
     11 C          67.9603   92.3187   13.9881 C.2     1  UNL1        0.4699
     12 O          68.3687   91.7053   12.6816 O.2     1  UNL1       -0.2094
     13 H          66.2530   92.6984   15.2676 H       1  UNL1        0.2579
     14 O          68.9911   92.9552   14.8726 O.3     1  UNL1       -0.4187
     15 C          68.5687   93.9087   15.9507 C.3     1  UNL1        0.2589
     16 S          61.0921   87.8920   10.8385 S.3     1  UNL1       -0.1176
     17 C          61.5987   86.5849   10.3047 C.3     1  UNL1        0.0619
     18 C          62.9628   85.2792    8.5202 C.3     1  UNL1        0.0009
     19 C          62.2617   86.5302    8.9604 C.3     1  UNL1        0.0120
@<TRIPOS>BOND
     1    18    19    1
     2    19    17    1
     3    17    16    1
     4    16     1    1
     5     1     2    2
     6     2     3    1
     7     3     4    2
     8     4     5    1
     9     5     6    2
    10     6    10    1
    11    10    11   am
    12    11    12    2
    13    11    14    1
    14    14    15    1
    15     6     7    1
    16     7     8    2
    17     8     9    1
    18     9     1    1
    19     8     4    1
    20    10    13    1
@<TRIPOS>MOLECULE
*****
 19 20 0 0 0
SMALL
GASTEIGER

@<TRIPOS>ATOM
      1 C          64.6940   90.5588   14.2516 C.2     1  UNL1        0.0107
      2 C          65.6937   91.3123   15.0778 C.2     1  UNL1        0.0054
      3 C          66.3790   92.5195   14.5093 C.2     1  UNL1        0.0400
      4 C          66.0646   92.9731   13.1146 C.2     1  UNL1        0.1888
      5 N          66.5772   94.1178   12.2919 N.2     1  UNL1       -0.0675
      6 C          65.8942   94.0718   10.9572 C.2     1  UNL1        0.4288
      7 N          64.9596   92.8986   10.9549 N.2     1  UNL1       -0.0713
      8 C          65.0649   92.2196   12.2884 C.2     1  UNL1        0.1750
      9 C          64.3796   91.0125   12.8568 C.3     1  UNL1        0.0997
     10 N          66.1084   95.0307    9.8237 N.am    1  UNL1       -0.1353
     11 C          67.4355   95.0834    9.1265 C.2     1  UNL1        0.4699
     12 O          68.5484   94.1772    9.5628 O.2     1  UNL1       -0.2094
     13 H          65.3780   95.6254    9.5373 H       1  UNL1        0.2579
     14 O          67.6497   96.0422    7.9930 O.3     1  UNL1       -0.4187
     15 C          66.5021   96.8551    7.4712 C.3     1  UNL1        0.2589
     16 S          64.0086   89.3517   14.8201 S.3     1  UNL1       -0.1176
     17 C          64.3027   87.9904   14.2630 C.3     1  UNL1        0.0619
     18 C          64.8543   85.4878   14.6904 C.3     1  UNL1        0.0009
     19 C          64.2814   86.7909   15.1634 C.3     1  UNL1        0.0120
@<TRIPOS>BOND
     1    18    19    1
     2    19    17    1
     3    17    16    1
     4    16     1    1
     5     1     2    2
     6     2     3    1
     7     3     4    2
     8     4     5    1
     9     5     6    2
    10     6    10    1
    11    10    11   am
    12    11    12    2
    13    11    14    1
    14    14    15    1
    15     6     7    1
    16     7     8    2
    17     8     9    1
    18     9     1    1
    19     8     4    1
    20    10    13    1
@<TRIPOS>MOLECULE
*****
 19 20 0 0 0
SMALL
GASTEIGER

@<TRIPOS>ATOM
      1 C          60.5650   87.7772    8.9609 C.2     1  UNL1        0.0107
      2 C          61.1226   86.5586    9.6346 C.2     1  UNL1        0.0054
      3 C          62.0324   86.7059   10.8180 C.2     1  UNL1        0.0400
      4 C          62.3846   88.0718   11.3278 C.2     1  UNL1        0.1888
      5 N          63.2499   88.5262   12.4657 N.2     1  UNL1       -0.0675
      6 C          63.2271   90.0258   12.4954 C.2     1  UNL1        0.4288
      7 N          62.3477   90.4982   11.3758 N.2     1  UNL1       -0.0713
      8 C          61.8270   89.2905   10.6542 C.2     1  UNL1        0.1750
      9 C          60.9172   89.1432    9.4708 C.3     1  UNL1        0.0997
     10 N          63.9557   90.8995   13.4730 N.am    1  UNL1       -0.1353
     11 C          63.6508   90.8017   14.9384 C.2     1  UNL1        0.4699
     12 O          62.6172   89.8301   15.4262 O.2     1  UNL1       -0.2094
     13 H          64.6341   91.5372   13.1529 H       1  UNL1        0.2579
     14 O          64.3794   91.6753   15.9161 O.3     1  UNL1       -0.4187
     15 C          65.7493   92.1897   15.5862 C.3     1  UNL1        0.2589
     16 S          59.6552   87.6299    7.7775 S.3     1  UNL1       -0.1176
     17 C          58.8756   88.8106    7.2793 C.3     1  UNL1        0.0619
     18 C          58.5879   90.7204    5.5414 C.3     1  UNL1        0.0009
     19 C          59.4514   89.6933    6.2119 C.3     1  UNL1        0.0120
@<TRIPOS>BOND
     1    18    19    1
     2    19    17    1
     3    17    16    1
     4    16     1    1
     5     1     2    2
     6     2     3    1
     7     3     4    2
     8     4     5    1
     9     5     6    2
    10     6    10    1
    11    10    11   am
    12    11    12    2
    13    11    14    1
    14    14    15    1
    15     6     7    1
    16     7     8    2
    17     8     9    1
    18     9     1    1
    19     8     4    1
    20    10    13    1
@<TRIPOS>MOLECULE
*****
 19 20 0 0 0
SMALL
GASTEIGER

@<TRIPOS>ATOM
      1 C          63.2494   83.9856   12.3686 C.2     1  UNL1        0.0107
      2 C          63.8002   83.4253   11.0908 C.2     1  UNL1        0.0054
      3 C          63.4682   84.0772    9.7813 C.2     1  UNL1        0.0400
      4 C          62.5854   85.2894    9.7496 C.2     1  UNL1        0.1888
      5 N          62.0885   86.1399    8.6183 N.2     1  UNL1       -0.0675
      6 C          61.2306   87.2258    9.1968 C.2     1  UNL1        0.4288
      7 N          61.1972   87.0465   10.6857 N.2     1  UNL1       -0.0713
      8 C          62.0346   85.8497   11.0273 C.2     1  UNL1        0.1750
      9 C          62.3666   85.1978   12.3368 C.3     1  UNL1        0.0997
     10 N          60.5292   88.3021    8.4224 N.am    1  UNL1       -0.1353
     11 C          59.2421   87.9990    7.7142 C.2     1  UNL1        0.4699
     12 O          58.6565   86.6196    7.7804 O.2     1  UNL1       -0.2094
     13 H          60.9135   89.2075    8.3790 H       1  UNL1        0.2579
     14 O          58.5407   89.0752    6.9398 O.3     1  UNL1       -0.4187
     15 C          59.3203   89.9652    6.0177 C.3     1  UNL1        0.2589
     16 S          63.5814   83.3337   13.6781 S.3     1  UNL1       -0.1176
     17 C          64.5626   83.9803   14.6103 C.3     1  UNL1        0.0619
     18 C          64.5199   86.5616   14.9027 C.3     1  UNL1        0.0009
     19 C          64.1617   85.1919   15.3986 C.3     1  UNL1        0.0120
@<TRIPOS>BOND
     1    18    19    1
     2    19    17    1
     3    17    16    1
     4    16     1    1
     5     1     2    2
     6     2     3    1
     7     3     4    2
     8     4     5    1
     9     5     6    2
    10     6    10    1
    11    10    11   am
    12    11    12    2
    13    11    14    1
    14    14    15    1
    15     6     7    1
    16     7     8    2
    17     8     9    1
    18     9     1    1
    19     8     4    1
    20    10    13    1
