@<TRIPOS>MOLECULE
*****
 35 39 0 0 0
SMALL
GASTEIGER

@<TRIPOS>ATOM
      1 C          62.9126   86.2089   12.4302 C.ar    1  UNL1        0.0682
      2 C          63.1892   87.6823   12.4801 C.ar    1  UNL1        0.0241
      3 C          63.9546   88.2632   13.6320 C.ar    1  UNL1        0.1060
      4 C          64.4435   87.3706   14.7339 C.ar    1  UNL1        0.0196
      5 C          64.1669   85.8971   14.6841 C.ar    1  UNL1        0.0160
      6 C          63.4015   85.3163   13.5322 C.ar    1  UNL1        0.0523
      7 N          59.5593   89.3262    7.1506 N.ar    1  UNL1       -0.2286
      8 C          59.5137   87.8269    7.1424 C.ar    1  UNL1        0.0990
      9 C          60.2772   87.3334    8.3355 C.ar    1  UNL1        0.0338
     10 C          60.7946   88.5277    9.0811 C.ar    1  UNL1        0.0981
     11 N          60.3509   89.7593    8.3488 N.ar    1  UNL1       -0.1680
     12 C          61.5581   88.0343   10.2743 C.3     1  UNL1        0.1414
     13 N          61.5126   86.5350   10.2661 N.am    1  UNL1       -0.2661
     14 C          62.1472   85.6281   11.2783 C.2     1  UNL1        0.2508
     15 O          62.0165   84.1403   11.1388 O.2     1  UNL1       -0.2698
     16 C          60.7209   86.1019    9.0679 C.3     1  UNL1        0.1236
     17 C          60.0068   92.8732    3.3798 C.3     1  UNL1        0.0521
     18 C          59.1484   92.0066    4.2529 C.ar    1  UNL1        0.0609
     19 C          59.7830   91.0997    5.2652 C.ar    1  UNL1        0.0339
     20 C          58.9247   90.2331    6.1383 C.ar    1  UNL1        0.0855
     21 C          57.4317   90.2735    5.9991 C.ar    1  UNL1        0.0398
     22 C          56.7971   91.1805    4.9868 C.ar    1  UNL1        0.1000
     23 N          57.6554   92.0470    4.1137 N.ar    1  UNL1       -0.2480
     24 N          63.1249   83.8429   13.4823 N.pl3   1  UNL1       -0.3070
     25 C          63.9680   82.9503   12.6205 C.3     1  UNL1        0.0964
     26 C          63.6914   81.4769   12.5706 C.3     1  UNL1        0.0880
     27 C          62.5718   80.8961   13.3825 C.3     1  UNL1        0.2672
     28 F          61.6316   79.8830   13.9653 F       1  UNL1       -0.2042
     29 F          63.0883   79.6516   12.7232 F       1  UNL1       -0.2042
     30 C          61.7288   81.7885   14.2442 C.3     1  UNL1        0.0880
     31 C          62.0053   83.2620   14.2942 C.3     1  UNL1        0.0964
     32 S          64.2312   89.7366   13.6818 S.O2    1  UNL1        0.0105
     33 C          64.5076   91.2101   13.7315 C.3     1  UNL1        0.1816
     34 O          63.3745   89.9384   12.4670 O.2     1  UNL1       -0.1686
     35 O          65.0878   89.5350   14.8965 O.2     1  UNL1       -0.1686
@<TRIPOS>BOND
     1    17    18    1
     2    18    19   ar
     3    19    20   ar
     4    20     7    1
     5     7     8   ar
     6     8     9   ar
     7     9    10   ar
     8    10    11   ar
     9    10    12    1
    10    12    13    1
    11    13    14   am
    12    14    15    2
    13    14     1    1
    14     1     2   ar
    15     2     3   ar
    16     3    32    1
    17    32    33    1
    18    32    34    2
    19    32    35    2
    20     3     4   ar
    21     4     5   ar
    22     5     6   ar
    23     6    24    1
    24    24    25    1
    25    25    26    1
    26    26    27    1
    27    27    28    1
    28    27    29    1
    29    27    30    1
    30    30    31    1
    31    13    16    1
    32    20    21   ar
    33    21    22   ar
    34    22    23   ar
    35    23    18   ar
    36    11     7   ar
    37     6     1   ar
    38    31    24    1
    39    16     9    1
@<TRIPOS>MOLECULE
*****
 35 39 0 0 0
SMALL
GASTEIGER

@<TRIPOS>ATOM
      1 C          71.2316   72.9972   14.2831 C.ar    1  UNL1        0.0682
      2 C          70.9699   72.6939   12.8376 C.ar    1  UNL1        0.0241
      3 C          71.1143   71.2907   12.3275 C.ar    1  UNL1        0.1060
      4 C          71.5204   70.1907   13.2629 C.ar    1  UNL1        0.0196
      5 C          71.7821   70.4939   14.7085 C.ar    1  UNL1        0.0160
      6 C          71.6377   71.8971   15.2186 C.ar    1  UNL1        0.0523
      7 N          72.3368   79.1320   11.1242 N.ar    1  UNL1       -0.2286
      8 C          71.8785   79.2188   12.5498 C.ar    1  UNL1        0.0990
      9 C          71.6933   77.8215   13.0630 C.ar    1  UNL1        0.0338
     10 C          72.0370   76.8712   11.9545 C.ar    1  UNL1        0.0981
     11 N          72.4347   77.6811   10.7563 N.ar    1  UNL1       -0.1680
     12 C          71.8518   75.4739   12.4677 C.3     1  UNL1        0.1414
     13 N          71.3936   75.5607   13.8934 N.am    1  UNL1       -0.2661
     14 C          71.0871   74.4004   14.7932 C.2     1  UNL1        0.2508
     15 O          70.6362   74.6431   16.2031 O.2     1  UNL1       -0.2698
     16 C          71.2956   77.0116   14.2613 C.3     1  UNL1        0.1236
     17 C          73.6303   80.9765    6.4418 C.3     1  UNL1        0.0521
     18 C          73.2900   81.2146    7.8831 C.ar    1  UNL1        0.0609
     19 C          72.9835   80.0543    8.7830 C.ar    1  UNL1        0.0339
     20 C          72.6432   80.2923   10.2244 C.ar    1  UNL1        0.0855
     21 C          72.6094   81.6907   10.7659 C.ar    1  UNL1        0.0398
     22 C          72.9159   82.8511    9.8660 C.ar    1  UNL1        0.1000
     23 N          73.2562   82.6130    8.4247 N.ar    1  UNL1       -0.2480
     24 N          71.8994   72.2003   16.6641 N.pl3   1  UNL1       -0.3070
     25 C          73.2509   72.6874   17.0955 C.3     1  UNL1        0.0964
     26 C          73.5126   72.9906   18.5411 C.3     1  UNL1        0.0880
     27 C          72.4227   72.8067   19.5551 C.3     1  UNL1        0.2672
     28 F          71.7172   72.7901   20.8788 F       1  UNL1       -0.2042
     29 F          73.5292   73.2880   20.4463 F       1  UNL1       -0.2042
     30 C          71.0712   72.3197   19.1238 C.3     1  UNL1        0.0880
     31 C          70.8095   72.0164   17.6783 C.3     1  UNL1        0.0964
     32 S          70.8526   70.9876   10.8819 S.O2    1  UNL1        0.0105
     33 C          70.5911   70.6845    9.4364 C.3     1  UNL1        0.1816
     34 O          72.2977   70.6309   10.6952 O.2     1  UNL1       -0.1686
     35 O          69.4077   71.3442   11.0686 O.2     1  UNL1       -0.1686
@<TRIPOS>BOND
     1    17    18    1
     2    18    19   ar
     3    19    20   ar
     4    20     7    1
     5     7     8   ar
     6     8     9   ar
     7     9    10   ar
     8    10    11   ar
     9    10    12    1
    10    12    13    1
    11    13    14   am
    12    14    15    2
    13    14     1    1
    14     1     2   ar
    15     2     3   ar
    16     3    32    1
    17    32    33    1
    18    32    34    2
    19    32    35    2
    20     3     4   ar
    21     4     5   ar
    22     5     6   ar
    23     6    24    1
    24    24    25    1
    25    25    26    1
    26    26    27    1
    27    27    28    1
    28    27    29    1
    29    27    30    1
    30    30    31    1
    31    13    16    1
    32    20    21   ar
    33    21    22   ar
    34    22    23   ar
    35    23    18   ar
    36    11     7   ar
    37     6     1   ar
    38    31    24    1
    39    16     9    1
@<TRIPOS>MOLECULE
*****
 35 39 0 0 0
SMALL
GASTEIGER

@<TRIPOS>ATOM
      1 C          65.0458   91.2017   14.7556 C.ar    1  UNL1        0.0682
      2 C          66.2824   91.7827   15.3747 C.ar    1  UNL1        0.0241
      3 C          67.2478   92.5624   14.5319 C.ar    1  UNL1        0.1060
      4 C          66.9766   92.7610   13.0701 C.ar    1  UNL1        0.0196
      5 C          65.7400   92.1799   12.4509 C.ar    1  UNL1        0.0160
      6 C          64.7747   91.4003   13.2937 C.ar    1  UNL1        0.0523
      7 N          63.2657   84.4462   14.5805 N.ar    1  UNL1       -0.2286
      8 C          62.5747   85.2638   15.6311 C.ar    1  UNL1        0.0990
      9 C          63.0735   86.6743   15.5232 C.ar    1  UNL1        0.0338
     10 C          64.0729   86.7284   14.4059 C.ar    1  UNL1        0.0981
     11 N          64.1917   85.3513   13.8232 N.ar    1  UNL1       -0.1680
     12 C          64.5718   88.1389   14.2981 C.3     1  UNL1        0.1414
     13 N          63.8807   88.9566   15.3488 N.am    1  UNL1       -0.2661
     14 C          64.0805   90.4221   15.5984 C.2     1  UNL1        0.2508
     15 O          63.3149   91.1081   16.6908 O.2     1  UNL1       -0.2698
     16 C          62.9547   88.0514   16.1059 C.3     1  UNL1        0.1236
     17 C          60.1124   80.3323   14.2159 C.3     1  UNL1        0.0521
     18 C          61.4893   80.9237   14.1485 C.ar    1  UNL1        0.0609
     19 C          61.6891   82.3892   14.3982 C.ar    1  UNL1        0.0339
     20 C          63.0660   82.9806   14.3308 C.ar    1  UNL1        0.0855
     21 C          64.2430   82.1065   14.0137 C.ar    1  UNL1        0.0398
     22 C          64.0431   80.6410   13.7641 C.ar    1  UNL1        0.1000
     23 N          62.6663   80.0496   13.8315 N.ar    1  UNL1       -0.2480
     24 N          63.5381   90.8192   12.6746 N.pl3   1  UNL1       -0.3070
     25 C          63.4704   90.6079   11.1911 C.3     1  UNL1        0.0964
     26 C          62.2338   90.0269   10.5720 C.3     1  UNL1        0.0880
     27 C          61.0650   89.6571   11.4364 C.3     1  UNL1        0.2672
     28 F          59.7091   89.1532   11.8335 F       1  UNL1       -0.2042
     29 F          60.5263   89.2708   10.0908 F       1  UNL1       -0.2042
     30 C          61.1327   89.8684   12.9199 C.3     1  UNL1        0.0880
     31 C          62.3693   90.4495   13.5391 C.3     1  UNL1        0.0964
     32 S          68.4843   93.1434   15.1511 S.O2    1  UNL1        0.0105
     33 C          69.7209   93.7243   15.7702 C.3     1  UNL1        0.1816
     34 O          69.3251   92.4585   14.1146 O.2     1  UNL1       -0.1686
     35 O          67.6437   93.8283   16.1876 O.2     1  UNL1       -0.1686
@<TRIPOS>BOND
     1    17    18    1
     2    18    19   ar
     3    19    20   ar
     4    20     7    1
     5     7     8   ar
     6     8     9   ar
     7     9    10   ar
     8    10    11   ar
     9    10    12    1
    10    12    13    1
    11    13    14   am
    12    14    15    2
    13    14     1    1
    14     1     2   ar
    15     2     3   ar
    16     3    32    1
    17    32    33    1
    18    32    34    2
    19    32    35    2
    20     3     4   ar
    21     4     5   ar
    22     5     6   ar
    23     6    24    1
    24    24    25    1
    25    25    26    1
    26    26    27    1
    27    27    28    1
    28    27    29    1
    29    27    30    1
    30    30    31    1
    31    13    16    1
    32    20    21   ar
    33    21    22   ar
    34    22    23   ar
    35    23    18   ar
    36    11     7   ar
    37     6     1   ar
    38    31    24    1
    39    16     9    1
