@<TRIPOS>MOLECULE
*****
 41 45 0 0 0
SMALL
GASTEIGER

@<TRIPOS>ATOM
      1 C          57.5214   90.8560    5.6732 C.3     1  UNL1        0.0191
      2 C          58.8086   91.1334    4.9546 C.3     1  UNL1        0.0774
      3 C          58.8056   91.9595    3.7026 C.3     1  UNL1        0.1081
      4 N          60.0928   92.2370    2.9841 N.pl3   1  UNL1       -0.2898
      5 C          61.3828   91.6883    3.5175 C.3     1  UNL1        0.1095
      6 C          61.3858   90.8622    4.7695 C.3     1  UNL1        0.0938
      7 N          60.0987   90.5848    5.4881 N.3     1  UNL1       -0.2721
      8 C          60.0897   93.0631    1.7320 C.ar    1  UNL1        0.1424
      9 N          58.7959   93.3649    1.0358 N.ar    1  UNL1       -0.2281
     10 C          58.7928   94.1910   -0.2162 C.ar    1  UNL1        0.1048
     11 C          60.0837   94.7153   -0.7720 C.ar    1  UNL1        0.0734
     12 C          61.3776   94.4135   -0.0758 C.ar    1  UNL1        0.0203
     13 C          61.3806   93.5873    1.1763 C.ar    1  UNL1        0.0893
     14 CL         62.6745   93.2855    1.8725 Cl      1  UNL1       -0.0793
     15 C          60.0806   95.5414   -2.0240 C.2     1  UNL1        0.2476
     16 O          59.3586   96.8558   -2.0535 O.2     1  UNL1       -0.2701
     17 N          60.7996   95.0531   -3.2465 N.am    1  UNL1       -0.2969
     18 H          61.2735   94.1903   -3.2272 H       1  UNL1        0.1501
     19 C          60.7966   95.8791   -4.4985 C.3     1  UNL1        0.1167
     20 C          62.0777   96.1223   -5.2398 C.ar    1  UNL1       -0.0002
     21 C          62.0613   96.2933   -6.7299 C.ar    1  UNL1       -0.0002
     22 C          63.3425   96.5365   -7.4711 C.ar    1  UNL1        0.0317
     23 C          64.6401   96.6088   -6.7222 C.ar    1  UNL1        0.1674
     24 F          65.9213   96.8520   -7.4634 F       1  UNL1       -0.2018
     25 C          64.6566   96.4378   -5.2320 C.ar    1  UNL1        0.1671
     26 F          65.9543   96.5101   -4.4831 F       1  UNL1       -0.2018
     27 C          63.3754   96.1946   -4.4908 C.ar    1  UNL1        0.0293
     28 C          60.1017   89.7587    6.7401 C.3     1  UNL1        0.0603
     29 C          59.5448   88.3660    6.7211 C.3     1  UNL1        0.0333
     30 C          59.5478   87.5399    7.9730 C.3     1  UNL1        0.0738
     31 N          60.1076   88.1064    9.2442 N.3     1  UNL1       -0.2689
     32 C          60.6645   89.4991    9.2632 C.3     1  UNL1        0.0738
     33 C          60.6615   90.3252    8.0112 C.3     1  UNL1        0.0333
     34 C          60.1106   87.2803   10.4961 C.3     1  UNL1        0.0991
     35 C          61.1969   86.2719   10.7267 C.ar    1  UNL1       -0.0061
     36 C          61.8270   85.5685    9.5614 C.ar    1  UNL1       -0.0021
     37 C          62.9133   84.5602    9.7920 C.ar    1  UNL1        0.0111
     38 C          63.3695   84.2552   11.1880 C.ar    1  UNL1        0.0577
     39 CL         64.4558   83.2468   11.4186 Cl      1  UNL1       -0.0822
     40 C          62.7394   84.9586   12.3534 C.ar    1  UNL1        0.0111
     41 C          61.6531   85.9669   12.1227 C.ar    1  UNL1       -0.0021
@<TRIPOS>BOND
     1     2     1    1
     2     2     3    1
     3     3     4    1
     4     4     8    1
     5     8     9   ar
     6     9    10   ar
     7    10    11   ar
     8    11    15    1
     9    15    16    2
    10    15    17   am
    11    17    19    1
    12    19    20    1
    13    20    21   ar
    14    21    22   ar
    15    22    23   ar
    16    23    24    1
    17    23    25   ar
    18    25    26    1
    19    25    27   ar
    20    11    12   ar
    21    12    13   ar
    22    13    14    1
    23     4     5    1
    24     5     6    1
    25     6     7    1
    26     7    28    1
    27    28    29    1
    28    29    30    1
    29    30    31    1
    30    31    34    1
    31    34    35    1
    32    35    36   ar
    33    36    37   ar
    34    37    38   ar
    35    38    39    1
    36    38    40   ar
    37    40    41   ar
    38    31    32    1
    39    32    33    1
    40     7     2    1
    41    33    28    1
    42    13     8   ar
    43    41    35   ar
    44    27    20   ar
    45    17    18    1
@<TRIPOS>MOLECULE
*****
 41 45 0 0 0
SMALL
GASTEIGER

@<TRIPOS>ATOM
      1 C          57.1815   91.9903    4.4281 C.3     1  UNL1        0.0191
      2 C          58.5735   91.5712    4.7981 C.3     1  UNL1        0.0774
      3 C          58.8075   90.7572    6.0361 C.3     1  UNL1        0.1081
      4 N          60.1995   90.3382    6.4061 N.pl3   1  UNL1       -0.2898
      5 C          61.3573   90.7330    5.5381 C.3     1  UNL1        0.1095
      6 C          61.1232   91.5470    4.3002 C.3     1  UNL1        0.0938
      7 N          59.7313   91.9661    3.9301 N.3     1  UNL1       -0.2721
      8 C          60.4335   89.5241    7.6441 C.ar    1  UNL1        0.1424
      9 N          61.2618   90.0823    8.7632 N.ar    1  UNL1       -0.2281
     10 C          61.4959   89.2684   10.0012 C.ar    1  UNL1        0.1048
     11 C          60.9016   87.8962   10.1202 C.ar    1  UNL1        0.0734
     12 C          60.0733   87.3380    9.0011 C.ar    1  UNL1        0.0203
     13 C          59.8392   88.1521    7.7631 C.ar    1  UNL1        0.0893
     14 CL         59.0109   87.5939    6.6440 Cl      1  UNL1       -0.0793
     15 C          61.1356   87.0823   11.3582 C.2     1  UNL1        0.2476
     16 O          60.1375   87.1154   12.4773 O.2     1  UNL1       -0.2701
     17 N          62.3679   86.2352   11.4771 N.am    1  UNL1       -0.2969
     18 H          63.0230   86.2135   10.7425 H       1  UNL1        0.1501
     19 C          62.6019   85.4213   12.7151 C.3     1  UNL1        0.1167
     20 C          62.6255   83.9236   12.6347 C.ar    1  UNL1       -0.0002
     21 C          62.2791   83.1023   13.8410 C.ar    1  UNL1       -0.0002
     22 C          62.3027   81.6046   13.7606 C.ar    1  UNL1        0.0317
     23 C          62.6728   80.9283   12.4739 C.ar    1  UNL1        0.1674
     24 F          62.6964   79.4307   12.3935 F       1  UNL1       -0.2018
     25 C          63.0192   81.7497   11.2675 C.ar    1  UNL1        0.1671
     26 F          63.3893   81.0734    9.9808 F       1  UNL1       -0.2018
     27 C          62.9956   83.2474   11.3479 C.ar    1  UNL1        0.0293
     28 C          59.4973   92.7801    2.6921 C.3     1  UNL1        0.0603
     29 C          60.0934   94.1513    2.5723 C.3     1  UNL1        0.0333
     30 C          59.8594   94.9653    1.3343 C.3     1  UNL1        0.0738
     31 N          59.0292   94.4081    0.2161 N.3     1  UNL1       -0.2689
     32 C          58.4331   93.0369    0.3359 C.3     1  UNL1        0.0738
     33 C          58.6672   92.2229    1.5739 C.3     1  UNL1        0.0333
     34 C          58.7953   95.2221   -1.0219 C.3     1  UNL1        0.0991
     35 C          58.0573   94.6254   -2.1835 C.ar    1  UNL1       -0.0061
     36 C          58.7741   93.7231   -3.1438 C.ar    1  UNL1       -0.0021
     37 C          58.0361   93.1264   -4.3054 C.ar    1  UNL1        0.0111
     38 C          56.5815   93.4319   -4.5068 C.ar    1  UNL1        0.0577
     39 CL         55.8436   92.8352   -5.6684 Cl      1  UNL1       -0.0822
     40 C          55.8648   94.3342   -3.5465 C.ar    1  UNL1        0.0111
     41 C          56.6027   94.9309   -2.3849 C.ar    1  UNL1       -0.0021
@<TRIPOS>BOND
     1     2     1    1
     2     2     3    1
     3     3     4    1
     4     4     8    1
     5     8     9   ar
     6     9    10   ar
     7    10    11   ar
     8    11    15    1
     9    15    16    2
    10    15    17   am
    11    17    19    1
    12    19    20    1
    13    20    21   ar
    14    21    22   ar
    15    22    23   ar
    16    23    24    1
    17    23    25   ar
    18    25    26    1
    19    25    27   ar
    20    11    12   ar
    21    12    13   ar
    22    13    14    1
    23     4     5    1
    24     5     6    1
    25     6     7    1
    26     7    28    1
    27    28    29    1
    28    29    30    1
    29    30    31    1
    30    31    34    1
    31    34    35    1
    32    35    36   ar
    33    36    37   ar
    34    37    38   ar
    35    38    39    1
    36    38    40   ar
    37    40    41   ar
    38    31    32    1
    39    32    33    1
    40     7     2    1
    41    33    28    1
    42    13     8   ar
    43    41    35   ar
    44    27    20   ar
    45    17    18    1
@<TRIPOS>MOLECULE
*****
 41 45 0 0 0
SMALL
GASTEIGER

@<TRIPOS>ATOM
      1 C          57.2037   92.0945    4.2961 C.3     1  UNL1        0.0191
      2 C          58.5963   91.6676    4.6547 C.3     1  UNL1        0.0774
      3 C          58.8355   90.8500    5.8893 C.3     1  UNL1        0.1081
      4 N          60.2280   90.4230    6.2479 N.pl3   1  UNL1       -0.2898
      5 C          61.3813   90.8137    5.3720 C.3     1  UNL1        0.1095
      6 C          61.1420   91.6313    4.1375 C.3     1  UNL1        0.0938
      7 N          59.7495   92.0583    3.7788 N.3     1  UNL1       -0.2721
      8 C          60.4672   89.6053    7.4826 C.ar    1  UNL1        0.1424
      9 N          61.2892   90.1653    8.6054 N.ar    1  UNL1       -0.2281
     10 C          61.5284   89.3477    9.8400 C.ar    1  UNL1        0.1048
     11 C          60.9456   87.9701    9.9518 C.ar    1  UNL1        0.0734
     12 C          60.1236   87.4100    8.8290 C.ar    1  UNL1        0.0203
     13 C          59.8844   88.2277    7.5943 C.ar    1  UNL1        0.0893
     14 CL         59.0624   87.6677    6.4715 Cl      1  UNL1       -0.0793
     15 C          61.1848   87.1525   11.1864 C.2     1  UNL1        0.2476
     16 O          60.2118   87.2132   12.3263 O.2     1  UNL1       -0.2701
     17 N          62.3971   86.2741   11.2811 N.am    1  UNL1       -0.2969
     18 H          63.0357   86.2343   10.5329 H       1  UNL1        0.1501
     19 C          62.6363   85.4566   12.5157 C.3     1  UNL1        0.1167
     20 C          62.6471   83.9589   12.4330 C.ar    1  UNL1       -0.0002
     21 C          63.1532   83.2797   11.1951 C.ar    1  UNL1       -0.0002
     22 C          63.1641   81.7820   11.1124 C.ar    1  UNL1        0.0317
     23 C          62.6687   80.9635   12.2676 C.ar    1  UNL1        0.1674
     24 F          62.6796   79.4658   12.1849 F       1  UNL1       -0.2018
     25 C          62.1626   81.6427   13.5056 C.ar    1  UNL1        0.1671
     26 F          61.6673   80.8241   14.6609 F       1  UNL1       -0.2018
     27 C          62.1518   83.1403   13.5883 C.ar    1  UNL1        0.0293
     28 C          59.5103   92.8760    2.5442 C.3     1  UNL1        0.0603
     29 C          58.6962   92.3124    1.4174 C.3     1  UNL1        0.0333
     30 C          58.4569   93.1300    0.1829 C.3     1  UNL1        0.0738
     31 N          59.0319   94.5112    0.0749 N.3     1  UNL1       -0.2689
     32 C          59.8461   95.0748    1.2016 C.3     1  UNL1        0.0738
     33 C          60.0853   94.2571    2.4363 C.3     1  UNL1        0.0333
     34 C          58.7927   95.3288   -1.1597 C.3     1  UNL1        0.0991
     35 C          57.3970   95.5167   -1.6760 C.ar    1  UNL1       -0.0061
     36 C          56.5662   96.6673   -1.1905 C.ar    1  UNL1       -0.0021
     37 C          55.1705   96.8552   -1.7069 C.ar    1  UNL1        0.0111
     38 C          54.6055   95.8925   -2.7088 C.ar    1  UNL1        0.0577
     39 CL         53.2098   96.0803   -3.2252 Cl      1  UNL1       -0.0822
     40 C          55.4363   94.7418   -3.1944 C.ar    1  UNL1        0.0111
     41 C          56.8321   94.5540   -2.6780 C.ar    1  UNL1       -0.0021
@<TRIPOS>BOND
     1     2     1    1
     2     2     3    1
     3     3     4    1
     4     4     8    1
     5     8     9   ar
     6     9    10   ar
     7    10    11   ar
     8    11    15    1
     9    15    16    2
    10    15    17   am
    11    17    19    1
    12    19    20    1
    13    20    21   ar
    14    21    22   ar
    15    22    23   ar
    16    23    24    1
    17    23    25   ar
    18    25    26    1
    19    25    27   ar
    20    11    12   ar
    21    12    13   ar
    22    13    14    1
    23     4     5    1
    24     5     6    1
    25     6     7    1
    26     7    28    1
    27    28    29    1
    28    29    30    1
    29    30    31    1
    30    31    34    1
    31    34    35    1
    32    35    36   ar
    33    36    37   ar
    34    37    38   ar
    35    38    39    1
    36    38    40   ar
    37    40    41   ar
    38    31    32    1
    39    32    33    1
    40     7     2    1
    41    33    28    1
    42    13     8   ar
    43    41    35   ar
    44    27    20   ar
    45    17    18    1
@<TRIPOS>MOLECULE
*****
 41 45 0 0 0
SMALL
GASTEIGER

@<TRIPOS>ATOM
      1 C          57.1960   92.0602    4.3579 C.3     1  UNL1        0.0191
      2 C          58.5837   91.6328    4.7343 C.3     1  UNL1        0.0774
      3 C          58.8084   90.8267    5.9791 C.3     1  UNL1        0.1081
      4 N          60.1961   90.3993    6.3554 N.pl3   1  UNL1       -0.2898
      5 C          61.3590   90.7781    5.4871 C.3     1  UNL1        0.1095
      6 C          61.1342   91.5842    4.2423 C.3     1  UNL1        0.0938
      7 N          59.7466   92.0116    3.8659 N.3     1  UNL1       -0.2721
      8 C          60.4209   89.5930    7.6003 C.ar    1  UNL1        0.1424
      9 N          61.2162   90.1697    8.7339 N.ar    1  UNL1       -0.2281
     10 C          61.4409   89.3635    9.9787 C.ar    1  UNL1        0.1048
     11 C          60.8704   87.9807   10.0899 C.ar    1  UNL1        0.0734
     12 C          60.0751   87.4041    8.9564 C.ar    1  UNL1        0.0203
     13 C          59.8504   88.2103    7.7115 C.ar    1  UNL1        0.0893
     14 CL         59.0551   87.6336    6.5779 Cl      1  UNL1       -0.0793
     15 C          61.0952   87.1745   11.3347 C.2     1  UNL1        0.2476
     16 O          60.0921   87.2202   12.4491 O.2     1  UNL1       -0.2701
     17 N          62.3229   86.3228   11.4652 N.am    1  UNL1       -0.2969
     18 H          62.9812   86.2928   10.7338 H       1  UNL1        0.1501
     19 C          62.5477   85.5166   12.7100 C.3     1  UNL1        0.1167
     20 C          62.5868   84.0189   12.6368 C.ar    1  UNL1       -0.0002
     21 C          62.2435   83.1997   13.8454 C.ar    1  UNL1       -0.0002
     22 C          62.2827   81.7020   13.7722 C.ar    1  UNL1        0.0317
     23 C          62.6651   81.0235   12.4903 C.ar    1  UNL1        0.1674
     24 F          62.7043   79.5258   12.4171 F       1  UNL1       -0.2018
     25 C          63.0085   81.8427   11.2815 C.ar    1  UNL1        0.1671
     26 F          63.3910   81.1643    9.9996 F       1  UNL1       -0.2018
     27 C          62.9693   83.3404   11.3548 C.ar    1  UNL1        0.0293
     28 C          59.5218   92.8178    2.6210 C.3     1  UNL1        0.0603
     29 C          58.7128   92.2475    1.4940 C.3     1  UNL1        0.0333
     30 C          58.4881   93.0536    0.2492 C.3     1  UNL1        0.0738
     31 N          59.0723   94.4302    0.1314 N.3     1  UNL1       -0.2689
     32 C          59.8813   95.0006    1.2585 C.3     1  UNL1        0.0738
     33 C          60.1060   94.1943    2.5033 C.3     1  UNL1        0.0333
     34 C          58.8475   95.2363   -1.1134 C.3     1  UNL1        0.0991
     35 C          59.6909   94.9898   -2.3291 C.ar    1  UNL1       -0.0061
     36 C          59.3412   95.6482   -3.6307 C.ar    1  UNL1       -0.0021
     37 C          60.1845   95.4017   -4.8464 C.ar    1  UNL1        0.0111
     38 C          61.3776   94.4967   -4.7605 C.ar    1  UNL1        0.0577
     39 CL         62.2210   94.2501   -5.9762 Cl      1  UNL1       -0.0822
     40 C          61.7273   93.8382   -3.4590 C.ar    1  UNL1        0.0111
     41 C          60.8840   94.0848   -2.2433 C.ar    1  UNL1       -0.0021
@<TRIPOS>BOND
     1     2     1    1
     2     2     3    1
     3     3     4    1
     4     4     8    1
     5     8     9   ar
     6     9    10   ar
     7    10    11   ar
     8    11    15    1
     9    15    16    2
    10    15    17   am
    11    17    19    1
    12    19    20    1
    13    20    21   ar
    14    21    22   ar
    15    22    23   ar
    16    23    24    1
    17    23    25   ar
    18    25    26    1
    19    25    27   ar
    20    11    12   ar
    21    12    13   ar
    22    13    14    1
    23     4     5    1
    24     5     6    1
    25     6     7    1
    26     7    28    1
    27    28    29    1
    28    29    30    1
    29    30    31    1
    30    31    34    1
    31    34    35    1
    32    35    36   ar
    33    36    37   ar
    34    37    38   ar
    35    38    39    1
    36    38    40   ar
    37    40    41   ar
    38    31    32    1
    39    32    33    1
    40     7     2    1
    41    33    28    1
    42    13     8   ar
    43    41    35   ar
    44    27    20   ar
    45    17    18    1
@<TRIPOS>MOLECULE
*****
 41 45 0 0 0
SMALL
GASTEIGER

@<TRIPOS>ATOM
      1 C          57.3433   92.0198    4.6139 C.3     1  UNL1        0.0191
      2 C          58.7245   91.5284    4.9311 C.3     1  UNL1        0.0774
      3 C          58.9412   90.5908    6.0817 C.3     1  UNL1        0.1081
      4 N          60.3225   90.0993    6.3988 N.pl3   1  UNL1       -0.2898
      5 C          61.4871   90.5454    5.5653 C.3     1  UNL1        0.1095
      6 C          61.2704   91.4829    4.4147 C.3     1  UNL1        0.0938
      7 N          59.8891   91.9744    4.0976 N.3     1  UNL1       -0.2721
      8 C          60.5392   89.1618    7.5495 C.ar    1  UNL1        0.1424
      9 N          61.4202   89.5691    8.6932 N.ar    1  UNL1       -0.2281
     10 C          61.6369   88.6316    9.8438 C.ar    1  UNL1        0.1048
     11 C          60.9725   87.2867    9.8509 C.ar    1  UNL1        0.0734
     12 C          60.0915   86.8794    8.7073 C.ar    1  UNL1        0.0203
     13 C          59.8748   87.8170    7.5566 C.ar    1  UNL1        0.0893
     14 CL         58.9938   87.4097    6.4130 Cl      1  UNL1       -0.0793
     15 C          61.1892   86.3492   11.0016 C.2     1  UNL1        0.2476
     16 O          60.5100   86.6038   12.3145 O.2     1  UNL1       -0.2701
     17 N          62.0851   85.1571   10.8393 N.am    1  UNL1       -0.2969
     18 H          62.5309   84.9900    9.9776 H       1  UNL1        0.1501
     19 C          62.3018   84.2196   11.9900 C.3     1  UNL1        0.1167
     20 C          62.7060   84.7581   13.3304 C.ar    1  UNL1       -0.0002
     21 C          62.1266   84.1678   14.5816 C.ar    1  UNL1       -0.0002
     22 C          62.5309   84.7063   15.9220 C.ar    1  UNL1        0.0317
     23 C          63.5145   85.8352   16.0111 C.ar    1  UNL1        0.1674
     24 F          63.9187   86.3738   17.3514 F       1  UNL1       -0.2018
     25 C          64.0940   86.4256   14.7597 C.ar    1  UNL1        0.1671
     26 F          65.0776   87.5545   14.8488 F       1  UNL1       -0.2018
     27 C          63.6897   85.8871   13.4194 C.ar    1  UNL1        0.0293
     28 C          59.6724   92.9120    2.9468 C.3     1  UNL1        0.0603
     29 C          59.0636   92.4070    1.6724 C.3     1  UNL1        0.0333
     30 C          58.8469   93.3445    0.5217 C.3     1  UNL1        0.0738
     31 N          59.2391   94.7871    0.6454 N.3     1  UNL1       -0.2689
     32 C          59.8479   95.2921    1.9199 C.3     1  UNL1        0.0738
     33 C          60.0646   94.3545    3.0706 C.3     1  UNL1        0.0333
     34 C          59.0224   95.7246   -0.5052 C.3     1  UNL1        0.0991
     35 C          58.0961   95.3411   -1.6210 C.ar    1  UNL1       -0.0061
     36 C          56.6211   95.2375   -1.3691 C.ar    1  UNL1       -0.0021
     37 C          55.6948   94.8539   -2.4848 C.ar    1  UNL1        0.0111
     38 C          56.2435   94.5740   -3.8524 C.ar    1  UNL1        0.0577
     39 CL         55.3172   94.1905   -4.9682 Cl      1  UNL1       -0.0822
     40 C          57.7185   94.6776   -4.1043 C.ar    1  UNL1        0.0111
     41 C          58.6448   95.0611   -2.9886 C.ar    1  UNL1       -0.0021
@<TRIPOS>BOND
     1     2     1    1
     2     2     3    1
     3     3     4    1
     4     4     8    1
     5     8     9   ar
     6     9    10   ar
     7    10    11   ar
     8    11    15    1
     9    15    16    2
    10    15    17   am
    11    17    19    1
    12    19    20    1
    13    20    21   ar
    14    21    22   ar
    15    22    23   ar
    16    23    24    1
    17    23    25   ar
    18    25    26    1
    19    25    27   ar
    20    11    12   ar
    21    12    13   ar
    22    13    14    1
    23     4     5    1
    24     5     6    1
    25     6     7    1
    26     7    28    1
    27    28    29    1
    28    29    30    1
    29    30    31    1
    30    31    34    1
    31    34    35    1
    32    35    36   ar
    33    36    37   ar
    34    37    38   ar
    35    38    39    1
    36    38    40   ar
    37    40    41   ar
    38    31    32    1
    39    32    33    1
    40     7     2    1
    41    33    28    1
    42    13     8   ar
    43    41    35   ar
    44    27    20   ar
    45    17    18    1
@<TRIPOS>MOLECULE
*****
 41 45 0 0 0
SMALL
GASTEIGER

@<TRIPOS>ATOM
      1 C          59.9715   86.0870    7.7122 C.3     1  UNL1        0.0191
      2 C          60.3797   87.5299    7.7476 C.3     1  UNL1        0.0774
      3 C          60.0822   88.4224    6.5793 C.3     1  UNL1        0.1081
      4 N          60.4905   89.8653    6.6146 N.pl3   1  UNL1       -0.2898
      5 C          61.1963   90.4158    7.8182 C.3     1  UNL1        0.1095
      6 C          61.4938   89.5234    8.9865 C.3     1  UNL1        0.0938
      7 N          61.0855   88.0804    8.9512 N.3     1  UNL1       -0.2721
      8 C          60.1929   90.7578    5.4462 C.ar    1  UNL1        0.1424
      9 N          61.3152   91.3008    4.6123 N.ar    1  UNL1       -0.2281
     10 C          61.0177   92.1932    3.4439 C.ar    1  UNL1        0.1048
     11 C          59.5978   92.5426    3.1095 C.ar    1  UNL1        0.0734
     12 C          58.4754   91.9996    3.9434 C.ar    1  UNL1        0.0203
     13 C          58.7730   91.1071    5.1118 C.ar    1  UNL1        0.0893
     14 CL         57.6507   90.5641    5.9457 Cl      1  UNL1       -0.0793
     15 C          59.3003   93.4350    1.9411 C.2     1  UNL1        0.2476
     16 O          59.6993   94.8804    1.9807 O.2     1  UNL1       -0.2701
     17 N          58.6037   92.8821    0.7332 N.am    1  UNL1       -0.2969
     18 H          58.3418   91.9334    0.7073 H       1  UNL1        0.1501
     19 C          58.3062   93.7745   -0.4351 C.3     1  UNL1        0.1167
     20 C          57.6744   93.2062   -1.6712 C.ar    1  UNL1       -0.0002
     21 C          57.9541   93.8249   -3.0087 C.ar    1  UNL1       -0.0002
     22 C          57.3223   93.2567   -4.2448 C.ar    1  UNL1        0.0317
     23 C          56.4109   92.0697   -4.1434 C.ar    1  UNL1        0.1674
     24 F          55.7791   91.5014   -5.3795 F       1  UNL1       -0.2018
     25 C          56.1312   91.4509   -2.8058 C.ar    1  UNL1        0.1671
     26 F          55.2198   90.2639   -2.7044 F       1  UNL1       -0.2018
     27 C          56.7630   92.0192   -1.5697 C.ar    1  UNL1        0.0293
     28 C          61.3831   87.1880   10.1196 C.3     1  UNL1        0.0603
     29 C          60.7842   87.4855   11.4622 C.3     1  UNL1        0.0333
     30 C          61.0818   86.5932   12.6306 C.3     1  UNL1        0.0738
     31 N          61.9782   85.4032   12.4563 N.3     1  UNL1       -0.2689
     32 C          62.5771   85.1056   11.1136 C.3     1  UNL1        0.0738
     33 C          62.2796   85.9981    9.9452 C.3     1  UNL1        0.0333
     34 C          62.2758   84.5108   13.6246 C.3     1  UNL1        0.0991
     35 C          62.3189   83.0228   13.4401 C.ar    1  UNL1       -0.0061
     36 C          61.5770   82.1277   14.3878 C.ar    1  UNL1       -0.0021
     37 C          61.6201   80.6397   14.2032 C.ar    1  UNL1        0.0111
     38 C          62.4051   80.0469   13.0709 C.ar    1  UNL1        0.0577
     39 CL         62.4482   78.5589   12.8863 Cl      1  UNL1       -0.0822
     40 C          63.1470   80.9420   12.1231 C.ar    1  UNL1        0.0111
     41 C          63.1039   82.4300   12.3077 C.ar    1  UNL1       -0.0021
@<TRIPOS>BOND
     1     2     1    1
     2     2     3    1
     3     3     4    1
     4     4     8    1
     5     8     9   ar
     6     9    10   ar
     7    10    11   ar
     8    11    15    1
     9    15    16    2
    10    15    17   am
    11    17    19    1
    12    19    20    1
    13    20    21   ar
    14    21    22   ar
    15    22    23   ar
    16    23    24    1
    17    23    25   ar
    18    25    26    1
    19    25    27   ar
    20    11    12   ar
    21    12    13   ar
    22    13    14    1
    23     4     5    1
    24     5     6    1
    25     6     7    1
    26     7    28    1
    27    28    29    1
    28    29    30    1
    29    30    31    1
    30    31    34    1
    31    34    35    1
    32    35    36   ar
    33    36    37   ar
    34    37    38   ar
    35    38    39    1
    36    38    40   ar
    37    40    41   ar
    38    31    32    1
    39    32    33    1
    40     7     2    1
    41    33    28    1
    42    13     8   ar
    43    41    35   ar
    44    27    20   ar
    45    17    18    1
@<TRIPOS>MOLECULE
*****
 41 45 0 0 0
SMALL
GASTEIGER

@<TRIPOS>ATOM
      1 C          59.9522   86.3223    8.1689 C.3     1  UNL1        0.0191
      2 C          60.4915   87.7174    8.0550 C.3     1  UNL1        0.0774
      3 C          60.1411   88.5622    6.8661 C.3     1  UNL1        0.1081
      4 N          60.6803   89.9572    6.7522 N.pl3   1  UNL1       -0.2898
      5 C          61.5699   90.5076    7.8272 C.3     1  UNL1        0.1095
      6 C          61.9203   89.6628    9.0162 C.3     1  UNL1        0.0938
      7 N          61.3810   88.2677    9.1300 N.3     1  UNL1       -0.2721
      8 C          60.3300   90.8020    5.5632 C.ar    1  UNL1        0.1424
      9 N          61.4173   91.3682    4.6989 N.ar    1  UNL1       -0.2281
     10 C          61.0670   92.2130    3.5099 C.ar    1  UNL1        0.1048
     11 C          59.6292   92.4915    3.1852 C.ar    1  UNL1        0.0734
     12 C          58.5419   91.9253    4.0495 C.ar    1  UNL1        0.0203
     13 C          58.8923   91.0805    5.2385 C.ar    1  UNL1        0.0893
     14 CL         57.8049   90.5143    6.1029 Cl      1  UNL1       -0.0793
     15 C          59.2789   93.3362    1.9963 C.2     1  UNL1        0.2476
     16 O          59.5781   94.8060    2.0062 O.2     1  UNL1       -0.2701
     17 N          58.6294   92.7112    0.7974 N.am    1  UNL1       -0.2969
     18 H          58.4330   91.7465    0.7908 H       1  UNL1        0.1501
     19 C          58.2790   93.5559   -0.3916 C.3     1  UNL1        0.1167
     20 C          59.2527   93.6979   -1.5238 C.ar    1  UNL1       -0.0002
     21 C          58.7712   94.1285   -2.8775 C.ar    1  UNL1       -0.0002
     22 C          59.7448   94.2706   -4.0097 C.ar    1  UNL1        0.0317
     23 C          61.2000   93.9820   -3.7882 C.ar    1  UNL1        0.1674
     24 F          62.1736   94.1240   -4.9203 F       1  UNL1       -0.2018
     25 C          61.6816   93.5514   -2.4344 C.ar    1  UNL1        0.1671
     26 F          63.1368   93.2628   -2.2128 F       1  UNL1       -0.2018
     27 C          60.7079   93.4093   -1.3022 C.ar    1  UNL1        0.0293
     28 C          61.7314   87.4230   10.3191 C.3     1  UNL1        0.0603
     29 C          61.3191   85.9814   10.3625 C.3     1  UNL1        0.0333
     30 C          61.6694   85.1366   11.5515 C.3     1  UNL1        0.0738
     31 N          62.4322   85.7334   12.6970 N.3     1  UNL1       -0.2689
     32 C          62.8445   87.1750   12.6535 C.3     1  UNL1        0.0738
     33 C          62.4941   88.0197   11.4645 C.3     1  UNL1        0.0333
     34 C          62.7825   84.8887   13.8859 C.3     1  UNL1        0.0991
     35 C          62.7477   83.3928   13.7796 C.ar    1  UNL1       -0.0061
     36 C          61.6075   82.6247   14.3795 C.ar    1  UNL1       -0.0021
     37 C          61.5727   81.1289   14.2732 C.ar    1  UNL1        0.0111
     38 C          62.6779   80.4012   13.5670 C.ar    1  UNL1        0.0577
     39 CL         62.6431   78.9054   13.4607 Cl      1  UNL1       -0.0822
     40 C          63.8181   81.1694   12.9670 C.ar    1  UNL1        0.0111
     41 C          63.8529   82.6652   13.0733 C.ar    1  UNL1       -0.0021
@<TRIPOS>BOND
     1     2     1    1
     2     2     3    1
     3     3     4    1
     4     4     8    1
     5     8     9   ar
     6     9    10   ar
     7    10    11   ar
     8    11    15    1
     9    15    16    2
    10    15    17   am
    11    17    19    1
    12    19    20    1
    13    20    21   ar
    14    21    22   ar
    15    22    23   ar
    16    23    24    1
    17    23    25   ar
    18    25    26    1
    19    25    27   ar
    20    11    12   ar
    21    12    13   ar
    22    13    14    1
    23     4     5    1
    24     5     6    1
    25     6     7    1
    26     7    28    1
    27    28    29    1
    28    29    30    1
    29    30    31    1
    30    31    34    1
    31    34    35    1
    32    35    36   ar
    33    36    37   ar
    34    37    38   ar
    35    38    39    1
    36    38    40   ar
    37    40    41   ar
    38    31    32    1
    39    32    33    1
    40     7     2    1
    41    33    28    1
    42    13     8   ar
    43    41    35   ar
    44    27    20   ar
    45    17    18    1
