@<TRIPOS>MOLECULE
*****
 33 37 0 0 0
SMALL
GASTEIGER

@<TRIPOS>ATOM
      1 N          63.4872   88.8473   13.6156 N.3     1  UNL1       -0.2679
      2 C          63.0023   89.1709   12.2335 C.3     1  UNL1        0.0978
      3 C          63.1053   90.5735   11.7118 C.3     1  UNL1        0.0224
      4 C          62.6204   90.8970   10.3297 C.3     1  UNL1        0.0065
      5 C          62.0324   89.8181    9.4694 C.3     1  UNL1        0.0277
      6 C          61.9294   88.4155    9.9911 C.ar    1  UNL1       -0.0073
      7 C          61.3415   87.3366    9.1308 C.ar    1  UNL1       -0.0015
      8 C          61.2385   85.9340    9.6526 C.ar    1  UNL1        0.0203
      9 C          61.7234   85.6104   11.0346 C.ar    1  UNL1        0.0985
     10 N          62.3113   86.6894   11.8949 N.ar    1  UNL1       -0.2471
     11 C          62.4143   88.0919   11.3732 C.ar    1  UNL1        0.0695
     12 C          63.2928   89.8337   14.7288 C.3     1  UNL1        0.0886
     13 C          69.0506   93.5048   15.5169 C.ar    1  UNL1       -0.0003
     14 C          69.2130   92.5822   14.3455 C.ar    1  UNL1       -0.0003
     15 C          68.0940   91.6634   13.9536 C.ar    1  UNL1       -0.0045
     16 C          66.8125   91.6673   14.7331 C.ar    1  UNL1       -0.0234
     17 C          66.6500   92.5900   15.9045 C.ar    1  UNL1       -0.0103
     18 C          67.7691   93.5087   16.2964 C.ar    1  UNL1       -0.0032
     19 C          65.3685   92.5939   16.6841 C.3     1  UNL1        0.0953
     20 N          64.2494   91.6752   16.2922 N.3     1  UNL1       -0.2934
     21 C          64.4119   90.7525   15.1207 C.3     1  UNL1        0.0748
     22 C          65.6934   90.7486   14.3412 C.3     1  UNL1        0.0432
     23 H          63.4408   92.2642   16.0932 H       1  UNL1        0.1236
     24 C          64.1666   87.5373   13.8845 C.3     1  UNL1        0.0738
     25 C          64.0139   86.8737   15.2210 C.3     1  UNL1        0.0347
     26 C          64.5128   85.4738   15.4246 C.3     1  UNL1        0.0736
     27 N          63.8985   84.3398   14.6587 N.3     1  UNL1       -0.2703
     28 C          62.7372   83.5864   15.2365 C.3     1  UNL1        0.0894
     29 C          62.1230   82.4525   14.4706 C.3     1  UNL1        0.0862
     30 N          62.6700   82.0718   13.1267 N.3     1  UNL1       -0.2951
     31 C          63.8312   82.8251   12.5488 C.3     1  UNL1        0.0862
     32 C          64.4455   83.9591   13.3148 C.3     1  UNL1        0.0894
     33 H          61.9021   82.1585   12.4609 H       1  UNL1        0.1233
@<TRIPOS>BOND
     1    13    14   ar
     2    14    15   ar
     3    15    16   ar
     4    16    17   ar
     5    17    18   ar
     6    17    19    1
     7    19    20    1
     8    20    21    1
     9    21    12    1
    10    12     1    1
    11     1    24    1
    12    24    25    1
    13    25    26    1
    14    26    27    1
    15    27    28    1
    16    28    29    1
    17    29    30    1
    18    30    31    1
    19    31    32    1
    20     2     1    1
    21     2     3    1
    22     3     4    1
    23     4     5    1
    24     5     6    1
    25     6     7   ar
    26     7     8   ar
    27     8     9   ar
    28     9    10   ar
    29    10    11   ar
    30    21    22    1
    31    18    13   ar
    32    32    27    1
    33    11     2    1
    34    22    16    1
    35    11     6   ar
    36    20    23    1
    37    30    33    1
@<TRIPOS>MOLECULE
*****
 33 37 0 0 0
SMALL
GASTEIGER

@<TRIPOS>ATOM
      1 N          62.9347   90.0822   12.9893 N.3     1  UNL1       -0.2679
      2 C          63.9061   91.0727   12.4192 C.3     1  UNL1        0.0978
      3 C          63.9211   91.3449   10.9441 C.3     1  UNL1        0.0224
      4 C          64.8926   92.3355   10.3740 C.3     1  UNL1        0.0065
      5 C          65.8492   93.0538   11.2790 C.3     1  UNL1        0.0277
      6 C          65.8343   92.7816   12.7540 C.ar    1  UNL1       -0.0073
      7 C          66.7909   93.4999   13.6589 C.ar    1  UNL1       -0.0015
      8 C          66.7760   93.2277   15.1339 C.ar    1  UNL1        0.0203
      9 C          65.8045   92.2373   15.7040 C.ar    1  UNL1        0.0985
     10 N          64.8479   91.5189   14.7991 N.ar    1  UNL1       -0.2471
     11 C          64.8628   91.7911   13.3241 C.ar    1  UNL1        0.0695
     12 C          61.5418   89.9958   12.4391 C.3     1  UNL1        0.0886
     13 C          61.3501   85.3973    7.3336 C.ar    1  UNL1       -0.0003
     14 C          62.5852   85.1693    8.1536 C.ar    1  UNL1       -0.0003
     15 C          62.8706   86.0434    9.3387 C.ar    1  UNL1       -0.0045
     16 C          61.9208   87.1455    9.7038 C.ar    1  UNL1       -0.0234
     17 C          60.6858   87.3735    8.8837 C.ar    1  UNL1       -0.0103
     18 C          60.4004   86.4994    7.6986 C.ar    1  UNL1       -0.0032
     19 C          59.7360   88.4757    9.2488 C.3     1  UNL1        0.0953
     20 N          60.0213   89.3498   10.4339 N.3     1  UNL1       -0.2934
     21 C          61.2565   89.1217   11.2540 C.3     1  UNL1        0.0748
     22 C          62.2062   88.0196   10.8889 C.3     1  UNL1        0.0432
     23 H          59.2266   89.2569   11.0665 H       1  UNL1        0.1236
     24 C          63.3559   89.1781   14.1096 C.3     1  UNL1        0.0738
     25 C          64.2448   88.0025   13.8308 C.3     1  UNL1        0.0347
     26 C          64.2912   86.8525   14.7927 C.3     1  UNL1        0.0736
     27 N          63.6787   85.5356   14.4174 N.3     1  UNL1       -0.2703
     28 C          63.3287   84.5402   15.4835 C.3     1  UNL1        0.0894
     29 C          62.7162   83.2235   15.1082 C.3     1  UNL1        0.0862
     30 N          62.4536   82.9021   13.6667 N.3     1  UNL1       -0.2951
     31 C          62.8036   83.8975   12.6006 C.3     1  UNL1        0.0862
     32 C          63.4161   85.2143   12.9759 C.3     1  UNL1        0.0894
     33 H          61.4534   82.7204   13.5830 H       1  UNL1        0.1233
@<TRIPOS>BOND
     1    13    14   ar
     2    14    15   ar
     3    15    16   ar
     4    16    17   ar
     5    17    18   ar
     6    17    19    1
     7    19    20    1
     8    20    21    1
     9    21    12    1
    10    12     1    1
    11     1    24    1
    12    24    25    1
    13    25    26    1
    14    26    27    1
    15    27    28    1
    16    28    29    1
    17    29    30    1
    18    30    31    1
    19    31    32    1
    20     2     1    1
    21     2     3    1
    22     3     4    1
    23     4     5    1
    24     5     6    1
    25     6     7   ar
    26     7     8   ar
    27     8     9   ar
    28     9    10   ar
    29    10    11   ar
    30    21    22    1
    31    18    13   ar
    32    32    27    1
    33    11     2    1
    34    22    16    1
    35    11     6   ar
    36    20    23    1
    37    30    33    1
@<TRIPOS>MOLECULE
*****
 33 37 0 0 0
SMALL
GASTEIGER

@<TRIPOS>ATOM
      1 N          65.2452   92.3607   12.0484 N.3     1  UNL1       -0.2679
      2 C          66.3043   92.7269   11.0514 C.3     1  UNL1        0.0978
      3 C          67.3429   91.7194   10.6563 C.3     1  UNL1        0.0224
      4 C          68.4021   92.0856    9.6592 C.3     1  UNL1        0.0065
      5 C          68.4227   93.4594    9.0574 C.3     1  UNL1        0.0277
      6 C          67.3841   94.4670    9.4525 C.ar    1  UNL1       -0.0073
      7 C          67.4046   95.8408    8.8506 C.ar    1  UNL1       -0.0015
      8 C          66.3660   96.8483    9.2458 C.ar    1  UNL1        0.0203
      9 C          65.3069   96.4821   10.2428 C.ar    1  UNL1        0.0985
     10 N          65.2863   95.1083   10.8446 N.ar    1  UNL1       -0.2471
     11 C          66.3249   94.1008   10.4495 C.ar    1  UNL1        0.0695
     12 C          65.5772   92.3084   13.5103 C.3     1  UNL1        0.0886
     13 C          63.0626   86.7909   16.7482 C.ar    1  UNL1       -0.0003
     14 C          63.8685   86.3413   15.5657 C.ar    1  UNL1       -0.0003
     15 C          64.5327   87.3549   14.6817 C.ar    1  UNL1       -0.0045
     16 C          64.3908   88.8181   14.9801 C.ar    1  UNL1       -0.0234
     17 C          63.5848   89.2676   16.1625 C.ar    1  UNL1       -0.0103
     18 C          62.9207   88.2540   17.0466 C.ar    1  UNL1       -0.0032
     19 C          63.4429   90.7308   16.4610 C.3     1  UNL1        0.0953
     20 N          64.1071   91.7444   15.5769 N.3     1  UNL1       -0.2934
     21 C          64.9131   91.2948   14.3944 C.3     1  UNL1        0.0748
     22 C          65.0549   89.8317   14.0960 C.3     1  UNL1        0.0432
     23 H          64.7335   92.2877   16.1708 H       1  UNL1        0.1236
     24 C          63.8540   92.0469   11.5836 C.3     1  UNL1        0.0738
     25 C          63.5516   90.7122   10.9696 C.3     1  UNL1        0.0347
     26 C          62.5132   89.8215   11.5849 C.3     1  UNL1        0.0736
     27 N          61.8190   88.7889   10.7471 N.3     1  UNL1       -0.2703
     28 C          62.0675   87.3307   10.9956 C.3     1  UNL1        0.0894
     29 C          61.3734   86.2982   10.1578 C.3     1  UNL1        0.0862
     30 N          60.4307   86.7239    9.0714 N.3     1  UNL1       -0.2951
     31 C          60.1822   88.1821    8.8229 C.3     1  UNL1        0.0862
     32 C          60.8764   89.2146    9.6607 C.3     1  UNL1        0.0894
     33 H          59.5263   86.3033    9.2848 H       1  UNL1        0.1233
@<TRIPOS>BOND
     1    13    14   ar
     2    14    15   ar
     3    15    16   ar
     4    16    17   ar
     5    17    18   ar
     6    17    19    1
     7    19    20    1
     8    20    21    1
     9    21    12    1
    10    12     1    1
    11     1    24    1
    12    24    25    1
    13    25    26    1
    14    26    27    1
    15    27    28    1
    16    28    29    1
    17    29    30    1
    18    30    31    1
    19    31    32    1
    20     2     1    1
    21     2     3    1
    22     3     4    1
    23     4     5    1
    24     5     6    1
    25     6     7   ar
    26     7     8   ar
    27     8     9   ar
    28     9    10   ar
    29    10    11   ar
    30    21    22    1
    31    18    13   ar
    32    32    27    1
    33    11     2    1
    34    22    16    1
    35    11     6   ar
    36    20    23    1
    37    30    33    1
@<TRIPOS>MOLECULE
*****
 33 37 0 0 0
SMALL
GASTEIGER

@<TRIPOS>ATOM
      1 N          60.8916   87.5690   10.1730 N.3     1  UNL1       -0.2679
      2 C          61.7720   86.4194    9.7814 C.3     1  UNL1        0.0978
      3 C          62.0720   86.1635    8.3342 C.3     1  UNL1        0.0224
      4 C          62.9524   85.0139    7.9426 C.3     1  UNL1        0.0065
      5 C          63.5328   84.1202    8.9983 C.3     1  UNL1        0.0277
      6 C          63.2327   84.3760   10.4455 C.ar    1  UNL1       -0.0073
      7 C          63.8130   83.4823   11.5012 C.ar    1  UNL1       -0.0015
      8 C          63.5130   83.7382   12.9484 C.ar    1  UNL1        0.0203
      9 C          62.6326   84.8878   13.3400 C.ar    1  UNL1        0.0985
     10 N          62.0523   85.7815   12.2843 N.ar    1  UNL1       -0.2471
     11 C          62.3524   85.5256   10.8371 C.ar    1  UNL1        0.0695
     12 C          61.1752   88.3365   11.4302 C.3     1  UNL1        0.0886
     13 C          66.1408   92.9373   12.6241 C.ar    1  UNL1       -0.0003
     14 C          65.9695   92.0735   13.8384 C.ar    1  UNL1       -0.0003
     15 C          64.9421   90.9806   13.8424 C.ar    1  UNL1       -0.0045
     16 C          64.0860   90.7515   12.6323 C.ar    1  UNL1       -0.0234
     17 C          64.2573   91.6153   11.4180 C.ar    1  UNL1       -0.0103
     18 C          65.2847   92.7082   11.4139 C.ar    1  UNL1       -0.0032
     19 C          63.4012   91.3862   10.2077 C.3     1  UNL1        0.0953
     20 N          62.3738   90.2933   10.2118 N.3     1  UNL1       -0.2934
     21 C          62.2025   89.4294   11.4262 C.3     1  UNL1        0.0748
     22 C          63.0586   89.6585   12.6363 C.3     1  UNL1        0.0432
     23 H          62.6034   89.6704    9.4374 H       1  UNL1        0.1236
     24 C          59.7277   87.9511    9.3073 C.3     1  UNL1        0.0738
     25 C          59.8844   89.0237    8.2705 C.3     1  UNL1        0.0347
     26 C          59.3348   88.8184    6.8900 C.3     1  UNL1        0.0736
     27 N          59.0949   89.9982    5.9952 N.3     1  UNL1       -0.2703
     28 C          60.2529   90.6880    5.3370 C.3     1  UNL1        0.0894
     29 C          60.0130   91.8677    4.4422 C.3     1  UNL1        0.0862
     30 N          58.6151   92.3576    4.2056 N.3     1  UNL1       -0.2951
     31 C          57.4572   91.6678    4.8638 C.3     1  UNL1        0.0862
     32 C          57.6971   90.4881    5.7586 C.3     1  UNL1        0.0894
     33 H          58.4529   92.3103    3.1997 H       1  UNL1        0.1233
@<TRIPOS>BOND
     1    13    14   ar
     2    14    15   ar
     3    15    16   ar
     4    16    17   ar
     5    17    18   ar
     6    17    19    1
     7    19    20    1
     8    20    21    1
     9    21    12    1
    10    12     1    1
    11     1    24    1
    12    24    25    1
    13    25    26    1
    14    26    27    1
    15    27    28    1
    16    28    29    1
    17    29    30    1
    18    30    31    1
    19    31    32    1
    20     2     1    1
    21     2     3    1
    22     3     4    1
    23     4     5    1
    24     5     6    1
    25     6     7   ar
    26     7     8   ar
    27     8     9   ar
    28     9    10   ar
    29    10    11   ar
    30    21    22    1
    31    18    13   ar
    32    32    27    1
    33    11     2    1
    34    22    16    1
    35    11     6   ar
    36    20    23    1
    37    30    33    1
@<TRIPOS>MOLECULE
*****
 33 37 0 0 0
SMALL
GASTEIGER

@<TRIPOS>ATOM
      1 N          63.5217   88.6681   13.9425 N.3     1  UNL1       -0.2679
      2 C          63.2222   89.2389   12.5880 C.3     1  UNL1        0.0978
      3 C          63.6997   90.6156   12.2321 C.3     1  UNL1        0.0224
      4 C          63.4002   91.1864   10.8775 C.3     1  UNL1        0.0065
      5 C          62.6234   90.3805    9.8791 C.3     1  UNL1        0.0277
      6 C          62.1460   89.0037   10.2351 C.ar    1  UNL1       -0.0073
      7 C          61.3692   88.1978    9.2366 C.ar    1  UNL1       -0.0015
      8 C          60.8917   86.8211    9.5926 C.ar    1  UNL1        0.0203
      9 C          61.1912   86.2503   10.9470 C.ar    1  UNL1        0.0985
     10 N          61.9680   87.0562   11.9455 N.ar    1  UNL1       -0.2471
     11 C          62.4454   88.4330   11.5895 C.ar    1  UNL1        0.0695
     12 C          64.4057   87.4630   14.0698 C.3     1  UNL1        0.0886
     13 C          62.0940   81.0232   13.4106 C.ar    1  UNL1       -0.0003
     14 C          62.8184   81.4155   12.1571 C.ar    1  UNL1       -0.0003
     15 C          63.4257   82.7820   12.0383 C.ar    1  UNL1       -0.0045
     16 C          63.3085   83.7561   13.1729 C.ar    1  UNL1       -0.0234
     17 C          62.5840   83.3637   14.4263 C.ar    1  UNL1       -0.0103
     18 C          61.9767   81.9973   14.5452 C.ar    1  UNL1       -0.0032
     19 C          62.4667   84.3378   15.5610 C.3     1  UNL1        0.0953
     20 N          63.0740   85.7043   15.4422 N.3     1  UNL1       -0.2934
     21 C          63.7985   86.0966   14.1886 C.3     1  UNL1        0.0748
     22 C          63.9157   85.1225   13.0540 C.3     1  UNL1        0.0432
     23 H          63.7401   85.7982   16.2089 H       1  UNL1        0.1236
     24 C          62.9370   89.3024   15.1696 C.3     1  UNL1        0.0738
     25 C          63.8043   90.1286   16.0725 C.3     1  UNL1        0.0347
     26 C          64.1245   91.5488   15.7114 C.3     1  UNL1        0.0736
     27 N          65.5250   91.9284   15.3310 N.3     1  UNL1       -0.2703
     28 C          66.0887   91.4905   14.0118 C.3     1  UNL1        0.0894
     29 C          67.4891   91.8701   13.6314 C.3     1  UNL1        0.0862
     30 N          68.3258   92.6877   14.5703 N.3     1  UNL1       -0.2951
     31 C          67.7621   93.1257   15.8895 C.3     1  UNL1        0.0862
     32 C          66.3617   92.7460   16.2699 C.3     1  UNL1        0.0894
     33 H          68.5903   93.5347   14.0673 H       1  UNL1        0.1233
@<TRIPOS>BOND
     1    13    14   ar
     2    14    15   ar
     3    15    16   ar
     4    16    17   ar
     5    17    18   ar
     6    17    19    1
     7    19    20    1
     8    20    21    1
     9    21    12    1
    10    12     1    1
    11     1    24    1
    12    24    25    1
    13    25    26    1
    14    26    27    1
    15    27    28    1
    16    28    29    1
    17    29    30    1
    18    30    31    1
    19    31    32    1
    20     2     1    1
    21     2     3    1
    22     3     4    1
    23     4     5    1
    24     5     6    1
    25     6     7   ar
    26     7     8   ar
    27     8     9   ar
    28     9    10   ar
    29    10    11   ar
    30    21    22    1
    31    18    13   ar
    32    32    27    1
    33    11     2    1
    34    22    16    1
    35    11     6   ar
    36    20    23    1
    37    30    33    1
@<TRIPOS>MOLECULE
*****
 33 37 0 0 0
SMALL
GASTEIGER

@<TRIPOS>ATOM
      1 N          62.7511   89.8094   12.2281 N.3     1  UNL1       -0.2679
      2 C          62.3826   88.5992   11.4221 C.3     1  UNL1        0.0978
      3 C          61.6373   88.7571   10.1300 C.3     1  UNL1        0.0224
      4 C          61.2688   87.5468    9.3240 C.3     1  UNL1        0.0065
      5 C          61.6455   86.1788    9.8102 C.3     1  UNL1        0.0277
      6 C          62.3908   86.0209   11.1024 C.ar    1  UNL1       -0.0073
      7 C          62.7676   84.6528   11.5885 C.ar    1  UNL1       -0.0015
      8 C          63.5128   84.4949   12.8807 C.ar    1  UNL1        0.0203
      9 C          63.8814   85.7051   13.6866 C.ar    1  UNL1        0.0985
     10 N          63.5046   87.0732   13.2004 N.ar    1  UNL1       -0.2471
     11 C          62.7593   87.2311   11.9083 C.ar    1  UNL1        0.0695
     12 C          62.9640   89.6886   13.7080 C.3     1  UNL1        0.0886
     13 C          68.4582   93.2091   15.8692 C.ar    1  UNL1       -0.0003
     14 C          68.8155   92.4596   14.6201 C.ar    1  UNL1       -0.0003
     15 C          67.7881   91.6056   13.9380 C.ar    1  UNL1       -0.0045
     16 C          66.4034   91.5011   14.5051 C.ar    1  UNL1       -0.0234
     17 C          66.0461   92.2506   15.7543 C.ar    1  UNL1       -0.0103
     18 C          67.0735   93.1046   16.4363 C.ar    1  UNL1       -0.0032
     19 C          64.6613   92.1461   16.3214 C.3     1  UNL1        0.0953
     20 N          63.6340   91.2921   15.6394 N.3     1  UNL1       -0.2934
     21 C          63.9914   90.5426   14.3901 C.3     1  UNL1        0.0748
     22 C          65.3761   90.6471   13.8230 C.3     1  UNL1        0.0432
     23 H          62.8529   91.9038   15.4025 H       1  UNL1        0.1236
     24 C          62.9068   91.1404   11.5542 C.3     1  UNL1        0.0738
     25 C          64.2205   91.5198   10.9376 C.3     1  UNL1        0.0347
     26 C          64.9199   92.7729   11.3743 C.3     1  UNL1        0.0736
     27 N          66.1809   93.2063   10.6872 N.3     1  UNL1       -0.2703
     28 C          67.2511   92.2012   10.3800 C.3     1  UNL1        0.0894
     29 C          68.5121   92.6347    9.6929 C.3     1  UNL1        0.0862
     30 N          68.7028   94.0732    9.3130 N.3     1  UNL1       -0.2951
     31 C          67.6326   95.0782    9.6202 C.3     1  UNL1        0.0862
     32 C          66.3716   94.6448   10.3072 C.3     1  UNL1        0.0894
     33 H          68.8458   94.0946    8.3033 H       1  UNL1        0.1233
@<TRIPOS>BOND
     1    13    14   ar
     2    14    15   ar
     3    15    16   ar
     4    16    17   ar
     5    17    18   ar
     6    17    19    1
     7    19    20    1
     8    20    21    1
     9    21    12    1
    10    12     1    1
    11     1    24    1
    12    24    25    1
    13    25    26    1
    14    26    27    1
    15    27    28    1
    16    28    29    1
    17    29    30    1
    18    30    31    1
    19    31    32    1
    20     2     1    1
    21     2     3    1
    22     3     4    1
    23     4     5    1
    24     5     6    1
    25     6     7   ar
    26     7     8   ar
    27     8     9   ar
    28     9    10   ar
    29    10    11   ar
    30    21    22    1
    31    18    13   ar
    32    32    27    1
    33    11     2    1
    34    22    16    1
    35    11     6   ar
    36    20    23    1
    37    30    33    1
@<TRIPOS>MOLECULE
*****
 33 37 0 0 0
SMALL
GASTEIGER

@<TRIPOS>ATOM
      1 N          63.8373   90.0060   13.6507 N.3     1  UNL1       -0.2679
      2 C          64.7702   91.1478   13.9260 C.3     1  UNL1        0.0978
      3 C          65.2999   91.3661   15.3123 C.3     1  UNL1        0.0224
      4 C          66.2330   92.5080   15.5875 C.3     1  UNL1        0.0065
      5 C          66.6362   93.4315   14.4765 C.3     1  UNL1        0.0277
      6 C          66.1065   93.2132   13.0902 C.ar    1  UNL1       -0.0073
      7 C          66.5098   94.1368   11.9792 C.ar    1  UNL1       -0.0015
      8 C          65.9801   93.9185   10.5929 C.ar    1  UNL1        0.0203
      9 C          65.0471   92.7767   10.3176 C.ar    1  UNL1        0.0985
     10 N          64.6438   91.8532   11.4287 N.ar    1  UNL1       -0.2471
     11 C          65.1735   92.0714   12.8149 C.ar    1  UNL1        0.0695
     12 C          62.3953   90.2747   13.3366 C.3     1  UNL1        0.0886
     13 C          60.4447   86.7226    7.7843 C.ar    1  UNL1       -0.0003
     14 C          61.5622   85.9914    8.4674 C.ar    1  UNL1       -0.0003
     15 C          62.1758   86.5556    9.7145 C.ar    1  UNL1       -0.0045
     16 C          61.6719   87.8510   10.2785 C.ar    1  UNL1       -0.0234
     17 C          60.5545   88.5821    9.5954 C.ar    1  UNL1       -0.0103
     18 C          59.9408   88.0179    8.3483 C.ar    1  UNL1       -0.0032
     19 C          60.0505   89.8775   10.1594 C.3     1  UNL1        0.0953
     20 N          60.6642   90.4417   11.4065 N.3     1  UNL1       -0.2934
     21 C          61.7817   89.7105   12.0895 C.3     1  UNL1        0.0748
     22 C          62.2855   88.4151   11.5255 C.3     1  UNL1        0.0432
     23 H          59.9119   90.5338   12.0891 H       1  UNL1        0.1236
     24 C          64.3462   88.5955   13.6896 C.3     1  UNL1        0.0738
     25 C          64.1102   87.7462   14.9032 C.3     1  UNL1        0.0347
     26 C          64.6968   86.3678   14.9797 C.3     1  UNL1        0.0736
     27 N          63.9353   85.1972   14.4319 N.3     1  UNL1       -0.2703
     28 C          63.5961   84.0397   15.3235 C.3     1  UNL1        0.0894
     29 C          62.8347   82.8691   14.7757 C.3     1  UNL1        0.0862
     30 N          62.4125   82.8562   13.3364 N.3     1  UNL1       -0.2951
     31 C          62.7518   84.0137   12.4448 C.3     1  UNL1        0.0862
     32 C          63.5132   85.1843   12.9926 C.3     1  UNL1        0.0894
     33 H          61.3965   82.7662   13.3283 H       1  UNL1        0.1233
@<TRIPOS>BOND
     1    13    14   ar
     2    14    15   ar
     3    15    16   ar
     4    16    17   ar
     5    17    18   ar
     6    17    19    1
     7    19    20    1
     8    20    21    1
     9    21    12    1
    10    12     1    1
    11     1    24    1
    12    24    25    1
    13    25    26    1
    14    26    27    1
    15    27    28    1
    16    28    29    1
    17    29    30    1
    18    30    31    1
    19    31    32    1
    20     2     1    1
    21     2     3    1
    22     3     4    1
    23     4     5    1
    24     5     6    1
    25     6     7   ar
    26     7     8   ar
    27     8     9   ar
    28     9    10   ar
    29    10    11   ar
    30    21    22    1
    31    18    13   ar
    32    32    27    1
    33    11     2    1
    34    22    16    1
    35    11     6   ar
    36    20    23    1
    37    30    33    1
@<TRIPOS>MOLECULE
*****
 33 37 0 0 0
SMALL
GASTEIGER

@<TRIPOS>ATOM
      1 N          62.7268   89.8516   12.3581 N.3     1  UNL1       -0.2679
      2 C          62.5458   88.4653   11.8148 C.3     1  UNL1        0.0978
      3 C          63.2258   87.3048   12.4787 C.3     1  UNL1        0.0224
      4 C          63.0448   85.9184   11.9353 C.3     1  UNL1        0.0065
      5 C          62.1836   85.6926   10.7281 C.3     1  UNL1        0.0277
      6 C          61.5036   86.8531   10.0642 C.ar    1  UNL1       -0.0073
      7 C          60.6424   86.6272    8.8570 C.ar    1  UNL1       -0.0015
      8 C          59.9624   87.7877    8.1931 C.ar    1  UNL1        0.0203
      9 C          60.1434   89.1740    8.7364 C.ar    1  UNL1        0.0985
     10 N          61.0045   89.3999    9.9436 N.ar    1  UNL1       -0.2471
     11 C          61.6846   88.2394   10.6075 C.ar    1  UNL1        0.0695
     12 C          62.7639   90.0773   13.8407 C.3     1  UNL1        0.0886
     13 C          68.7041   93.0337   15.6361 C.ar    1  UNL1       -0.0003
     14 C          68.8935   92.2967   14.3435 C.ar    1  UNL1       -0.0003
     15 C          67.7433   91.5580   13.7259 C.ar    1  UNL1       -0.0045
     16 C          66.4038   91.5563   14.4009 C.ar    1  UNL1       -0.0234
     17 C          66.2144   92.2934   15.6935 C.ar    1  UNL1       -0.0103
     18 C          67.3646   93.0320   16.3111 C.ar    1  UNL1       -0.0032
     19 C          64.8749   92.2917   16.3686 C.3     1  UNL1        0.0953
     20 N          63.7247   91.5530   15.7510 N.3     1  UNL1       -0.2934
     21 C          63.9141   90.8160   14.4583 C.3     1  UNL1        0.0748
     22 C          65.2536   90.8176   13.7833 C.3     1  UNL1        0.0432
     23 H          62.9852   92.2378   15.5939 H       1  UNL1        0.1236
     24 C          62.8708   91.0124   11.4190 C.3     1  UNL1        0.0738
     25 C          64.2313   91.4280   10.9434 C.3     1  UNL1        0.0347
     26 C          64.7588   92.7916   11.2787 C.3     1  UNL1        0.0736
     27 N          65.9995   93.3017   10.6074 N.3     1  UNL1       -0.2703
     28 C          66.1449   94.7652   10.3124 C.3     1  UNL1        0.0894
     29 C          67.3855   95.2753    9.6411 C.3     1  UNL1        0.0862
     30 N          68.4806   94.3219    9.2647 N.3     1  UNL1       -0.2951
     31 C          68.3352   92.8584    9.5597 C.3     1  UNL1        0.0862
     32 C          67.0946   92.3483   10.2310 C.3     1  UNL1        0.0894
     33 H          69.3233   94.6368    9.7455 H       1  UNL1        0.1233
@<TRIPOS>BOND
     1    13    14   ar
     2    14    15   ar
     3    15    16   ar
     4    16    17   ar
     5    17    18   ar
     6    17    19    1
     7    19    20    1
     8    20    21    1
     9    21    12    1
    10    12     1    1
    11     1    24    1
    12    24    25    1
    13    25    26    1
    14    26    27    1
    15    27    28    1
    16    28    29    1
    17    29    30    1
    18    30    31    1
    19    31    32    1
    20     2     1    1
    21     2     3    1
    22     3     4    1
    23     4     5    1
    24     5     6    1
    25     6     7   ar
    26     7     8   ar
    27     8     9   ar
    28     9    10   ar
    29    10    11   ar
    30    21    22    1
    31    18    13   ar
    32    32    27    1
    33    11     2    1
    34    22    16    1
    35    11     6   ar
    36    20    23    1
    37    30    33    1
@<TRIPOS>MOLECULE
*****
 33 37 0 0 0
SMALL
GASTEIGER

@<TRIPOS>ATOM
      1 N          63.0993   88.8692   12.7465 N.3     1  UNL1       -0.2679
      2 C          63.5973   87.6099   13.3914 C.3     1  UNL1        0.0978
      3 C          64.4287   87.6835   14.6377 C.3     1  UNL1        0.0224
      4 C          64.9267   86.4240   15.2826 C.3     1  UNL1        0.0065
      5 C          64.5932   85.0910   14.6812 C.3     1  UNL1        0.0277
      6 C          63.7617   85.0173   13.4349 C.ar    1  UNL1       -0.0073
      7 C          63.4282   83.6843   12.8335 C.ar    1  UNL1       -0.0015
      8 C          62.5967   83.6106   11.5872 C.ar    1  UNL1        0.0203
      9 C          62.0988   84.8700   10.9423 C.ar    1  UNL1        0.0985
     10 N          62.4323   86.2031   11.5437 N.ar    1  UNL1       -0.2471
     11 C          63.2638   86.2767   12.7900 C.ar    1  UNL1        0.0695
     12 C          62.7958   90.0734   13.5879 C.3     1  UNL1        0.0886
     13 C          68.5721   93.1276   15.7223 C.ar    1  UNL1       -0.0003
     14 C          68.7946   92.5593   14.3521 C.ar    1  UNL1       -0.0003
     15 C          67.6839   91.8347   13.6512 C.ar    1  UNL1       -0.0045
     16 C          66.3506   91.6786   14.3205 C.ar    1  UNL1       -0.0234
     17 C          66.1281   92.2470   15.6906 C.ar    1  UNL1       -0.0103
     18 C          67.2389   92.9715   16.3915 C.ar    1  UNL1       -0.0032
     19 C          64.7948   92.0908   16.3600 C.3     1  UNL1        0.0953
     20 N          63.6840   91.3663   15.6591 N.3     1  UNL1       -0.2934
     21 C          63.9065   90.7979   14.2888 C.3     1  UNL1        0.0748
     22 C          65.2398   90.9541   13.6196 C.3     1  UNL1        0.0432
     23 H          62.9065   92.0222   15.5831 H       1  UNL1        0.1236
     24 C          62.9049   88.9246   11.2602 C.3     1  UNL1        0.0738
     25 C          62.2432   90.1163   10.6342 C.3     1  UNL1        0.0347
     26 C          60.7631   90.1107   10.3909 C.3     1  UNL1        0.0736
     27 N          60.1760   89.1929    9.3599 N.3     1  UNL1       -0.2703
     28 C          59.8315   89.7177    7.9976 C.3     1  UNL1        0.0894
     29 C          59.2444   88.7999    6.9667 C.3     1  UNL1        0.0862
     30 N          59.0017   87.3573    7.2980 N.3     1  UNL1       -0.2951
     31 C          59.3462   86.8324    8.6603 C.3     1  UNL1        0.0862
     32 C          59.9333   87.7502    9.6912 C.3     1  UNL1        0.0894
     33 H          59.5369   86.8069    6.6264 H       1  UNL1        0.1233
@<TRIPOS>BOND
     1    13    14   ar
     2    14    15   ar
     3    15    16   ar
     4    16    17   ar
     5    17    18   ar
     6    17    19    1
     7    19    20    1
     8    20    21    1
     9    21    12    1
    10    12     1    1
    11     1    24    1
    12    24    25    1
    13    25    26    1
    14    26    27    1
    15    27    28    1
    16    28    29    1
    17    29    30    1
    18    30    31    1
    19    31    32    1
    20     2     1    1
    21     2     3    1
    22     3     4    1
    23     4     5    1
    24     5     6    1
    25     6     7   ar
    26     7     8   ar
    27     8     9   ar
    28     9    10   ar
    29    10    11   ar
    30    21    22    1
    31    18    13   ar
    32    32    27    1
    33    11     2    1
    34    22    16    1
    35    11     6   ar
    36    20    23    1
    37    30    33    1
