@<TRIPOS>MOLECULE
*****
 30 32 0 0 0
SMALL
GASTEIGER

@<TRIPOS>ATOM
      1 C          63.2705   89.1417   17.1768 C.3     1  UNL1        0.0334
      2 C          63.3856   87.8783   16.3765 C.ar    1  UNL1        0.0071
      3 C          62.9554   86.5709   16.9729 C.ar    1  UNL1        0.1363
      4 F          62.4101   86.5269   18.3696 F       1  UNL1       -0.2045
      5 C          63.0705   85.3075   16.1726 C.ar    1  UNL1        0.0338
      6 C          63.6158   85.3514   14.7759 C.ar    1  UNL1        0.0556
      7 C          64.0460   86.6588   14.1796 C.ar    1  UNL1        0.0058
      8 C          63.9309   87.9222   14.9799 C.ar    1  UNL1        0.0160
      9 C          64.3611   89.2297   14.3835 C.ar    1  UNL1        0.0811
     10 C          63.5946   89.8192   13.2367 C.ar    1  UNL1        0.0193
     11 C          64.0247   91.1266   12.6403 C.ar    1  UNL1        0.0076
     12 C          65.2214   91.8445   13.1906 C.ar    1  UNL1        0.0725
     13 C          65.9879   91.2549   14.3373 C.ar    1  UNL1        0.1033
     14 N          65.5577   89.9475   14.9338 N.ar    1  UNL1       -0.2437
     15 C          65.6515   93.1518   12.5942 C.2     1  UNL1        0.2474
     16 O          66.1756   94.2436   13.4792 O.2     1  UNL1       -0.2701
     17 N          65.5576   93.3674   11.1127 N.am    1  UNL1       -0.3008
     18 H          65.2136   92.6508   10.5319 H       1  UNL1        0.1497
     19 C          65.9877   94.6747   10.5163 C.3     1  UNL1        0.0896
     20 C          66.9156   94.6924    9.3379 C.3     1  UNL1        0.0181
     21 C          66.4713   96.0868    9.0089 C.3     1  UNL1        0.0017
     22 C          67.3598   93.2979    9.6668 C.3     1  UNL1        0.0017
     23 C          67.8434   94.7100    8.1594 C.3     1  UNL1        0.0017
     24 C          63.7309   84.0880   13.9756 C.2     1  UNL1        0.2459
     25 O          65.0119   83.7640   13.2656 O.2     1  UNL1       -0.2701
     26 N          62.5651   83.1485   13.8853 N.am    1  UNL1       -0.3025
     27 H          61.7244   83.3611   14.3514 H       1  UNL1        0.1497
     28 C          62.6802   81.8851   13.0850 C.3     1  UNL1        0.0720
     29 C          62.5527   80.3938   12.9862 C.3     1  UNL1        0.0213
     30 C          63.0072   81.1881   11.7977 C.3     1  UNL1        0.0213
@<TRIPOS>BOND
     1     1     2    1
     2     2     3   ar
     3     3     4    1
     4     3     5   ar
     5     5     6   ar
     6     6    24    1
     7    24    25    2
     8    24    26   am
     9    26    28    1
    10    28    29    1
    11    29    30    1
    12     6     7   ar
    13     7     8   ar
    14     8     9    1
    15     9    10   ar
    16    10    11   ar
    17    11    12   ar
    18    12    15    1
    19    15    16    2
    20    15    17   am
    21    17    19    1
    22    19    20    1
    23    20    21    1
    24    20    22    1
    25    20    23    1
    26    12    13   ar
    27    13    14   ar
    28     8     2   ar
    29    14     9   ar
    30    30    28    1
    31    26    27    1
    32    17    18    1
@<TRIPOS>MOLECULE
*****
 30 32 0 0 0
SMALL
GASTEIGER

@<TRIPOS>ATOM
      1 C          62.9232   86.3713   11.9208 C.3     1  UNL1        0.0334
      2 C          62.0608   86.9763   10.8529 C.ar    1  UNL1        0.0071
      3 C          61.2722   86.0907    9.9345 C.ar    1  UNL1        0.1363
      4 F          61.3458   84.5999   10.0838 F       1  UNL1       -0.2045
      5 C          60.4098   86.6957    8.8666 C.ar    1  UNL1        0.0338
      6 C          60.3361   88.1864    8.7173 C.ar    1  UNL1        0.0556
      7 C          61.1248   89.0721    9.6357 C.ar    1  UNL1        0.0058
      8 C          61.9872   88.4670   10.7035 C.ar    1  UNL1        0.0160
      9 C          62.7759   89.3527   11.6220 C.ar    1  UNL1        0.0811
     10 C          63.4308   90.5924   11.0890 C.ar    1  UNL1        0.0193
     11 C          64.2195   91.4782   12.0074 C.ar    1  UNL1        0.0076
     12 C          64.3532   91.1242   13.4589 C.ar    1  UNL1        0.0725
     13 C          63.6983   89.8845   13.9920 C.ar    1  UNL1        0.1033
     14 N          62.9096   88.9987   13.0735 N.ar    1  UNL1       -0.2437
     15 C          65.1419   92.0099   14.3773 C.2     1  UNL1        0.2474
     16 O          64.6591   92.2603   15.7752 O.2     1  UNL1       -0.2701
     17 N          66.4133   92.6451   13.8978 N.am    1  UNL1       -0.3008
     18 H          66.7301   92.4808   12.9803 H       1  UNL1        0.1497
     19 C          67.2019   93.5309   14.8162 C.3     1  UNL1        0.0896
     20 C          68.3583   92.9696   15.5893 C.3     1  UNL1        0.0181
     21 C          68.7389   94.3537   16.0248 C.3     1  UNL1        0.0017
     22 C          67.9778   91.5856   15.1539 C.3     1  UNL1        0.0017
     23 C          69.5147   92.4084   16.3625 C.3     1  UNL1        0.0017
     24 C          59.4738   88.7915    7.6494 C.2     1  UNL1        0.2459
     25 O          58.1914   88.1224    7.2524 O.2     1  UNL1       -0.2701
     26 N          59.8938   90.0657    6.9786 N.am    1  UNL1       -0.3025
     27 H          60.7355   90.5048    7.2392 H       1  UNL1        0.1497
     28 C          59.0315   90.6707    5.9108 C.3     1  UNL1        0.0720
     29 C          58.8872   91.5274    4.6880 C.3     1  UNL1        0.0213
     30 C          57.6822   90.8620    5.2841 C.3     1  UNL1        0.0213
@<TRIPOS>BOND
     1     1     2    1
     2     2     3   ar
     3     3     4    1
     4     3     5   ar
     5     5     6   ar
     6     6    24    1
     7    24    25    2
     8    24    26   am
     9    26    28    1
    10    28    29    1
    11    29    30    1
    12     6     7   ar
    13     7     8   ar
    14     8     9    1
    15     9    10   ar
    16    10    11   ar
    17    11    12   ar
    18    12    15    1
    19    15    16    2
    20    15    17   am
    21    17    19    1
    22    19    20    1
    23    20    21    1
    24    20    22    1
    25    20    23    1
    26    12    13   ar
    27    13    14   ar
    28     8     2   ar
    29    14     9   ar
    30    30    28    1
    31    26    27    1
    32    17    18    1
@<TRIPOS>MOLECULE
*****
 30 32 0 0 0
SMALL
GASTEIGER

@<TRIPOS>ATOM
      1 C          60.9087   86.6248   10.4739 C.3     1  UNL1        0.0334
      2 C          60.5163   87.5344    9.3476 C.ar    1  UNL1        0.0071
      3 C          59.7388   86.9948    8.1839 C.ar    1  UNL1        0.1363
      4 F          59.3537   85.5455    8.1464 F       1  UNL1       -0.2045
      5 C          59.3463   87.9044    7.0576 C.ar    1  UNL1        0.0338
      6 C          59.7314   89.3536    7.0950 C.ar    1  UNL1        0.0556
      7 C          60.5089   89.8932    8.2587 C.ar    1  UNL1        0.0058
      8 C          60.9013   88.9836    9.3850 C.ar    1  UNL1        0.0160
      9 C          61.6789   89.5233   10.5487 C.ar    1  UNL1        0.0811
     10 C          62.8607   90.4161   10.3118 C.ar    1  UNL1        0.0193
     11 C          63.6383   90.9558   11.4754 C.ar    1  UNL1        0.0076
     12 C          63.2340   90.6026   12.8762 C.ar    1  UNL1        0.0725
     13 C          62.0522   89.7098   13.1131 C.ar    1  UNL1        0.1033
     14 N          61.2746   89.1701   11.9494 N.ar    1  UNL1       -0.2437
     15 C          64.0115   91.1423   14.0398 C.2     1  UNL1        0.2474
     16 O          63.4412   91.0621   15.4248 O.2     1  UNL1       -0.2701
     17 N          65.3594   91.7622   13.8185 N.am    1  UNL1       -0.3008
     18 H          65.7337   91.8148   12.9094 H       1  UNL1        0.1497
     19 C          66.1369   92.3019   14.9821 C.3     1  UNL1        0.0896
     20 C          67.6320   92.3968   14.9059 C.3     1  UNL1        0.0181
     21 C          67.6786   92.8185   16.3447 C.3     1  UNL1        0.0017
     22 C          67.5854   91.9751   13.4672 C.3     1  UNL1        0.0017
     23 C          69.1270   92.4918   14.8297 C.3     1  UNL1        0.0017
     24 C          59.3389   90.2633    5.9687 C.2     1  UNL1        0.2459
     25 O          57.8971   90.3910    5.5754 O.2     1  UNL1       -0.2701
     26 N          60.3883   91.0452    5.2357 N.am    1  UNL1       -0.3025
     27 H          61.3347   90.9614    5.4938 H       1  UNL1        0.1497
     28 C          59.9959   91.9548    4.1093 C.3     1  UNL1        0.0720
     29 C          60.3737   92.9404    3.0437 C.3     1  UNL1        0.0213
     30 C          58.9382   92.5446    3.2242 C.3     1  UNL1        0.0213
@<TRIPOS>BOND
     1     1     2    1
     2     2     3   ar
     3     3     4    1
     4     3     5   ar
     5     5     6   ar
     6     6    24    1
     7    24    25    2
     8    24    26   am
     9    26    28    1
    10    28    29    1
    11    29    30    1
    12     6     7   ar
    13     7     8   ar
    14     8     9    1
    15     9    10   ar
    16    10    11   ar
    17    11    12   ar
    18    12    15    1
    19    15    16    2
    20    15    17   am
    21    17    19    1
    22    19    20    1
    23    20    21    1
    24    20    22    1
    25    20    23    1
    26    12    13   ar
    27    13    14   ar
    28     8     2   ar
    29    14     9   ar
    30    30    28    1
    31    26    27    1
    32    17    18    1
@<TRIPOS>MOLECULE
*****
 30 32 0 0 0
SMALL
GASTEIGER

@<TRIPOS>ATOM
      1 C          63.3601   89.6109   12.5765 C.3     1  UNL1        0.0334
      2 C          63.4451   88.1580   12.9398 C.ar    1  UNL1        0.0071
      3 C          64.2826   87.7244   14.1062 C.ar    1  UNL1        0.1363
      4 F          65.0351   88.7437   14.9094 F       1  UNL1       -0.2045
      5 C          64.3676   86.2716   14.4696 C.ar    1  UNL1        0.0338
      6 C          63.6151   85.2524   13.6665 C.ar    1  UNL1        0.0556
      7 C          62.7777   85.6860   12.5001 C.ar    1  UNL1        0.0058
      8 C          62.6927   87.1388   12.1368 C.ar    1  UNL1        0.0160
      9 C          61.8552   87.5724   10.9703 C.ar    1  UNL1        0.0811
     10 C          61.8324   86.7496    9.7163 C.ar    1  UNL1        0.0193
     11 C          60.9949   87.1831    8.5499 C.ar    1  UNL1        0.0076
     12 C          60.1802   88.4396    8.6373 C.ar    1  UNL1        0.0725
     13 C          60.2030   89.2624    9.8913 C.ar    1  UNL1        0.1033
     14 N          61.0405   88.8288   11.0577 N.ar    1  UNL1       -0.2437
     15 C          59.3427   88.8731    7.4709 C.2     1  UNL1        0.2474
     16 O          58.1247   88.0858    7.0884 O.2     1  UNL1       -0.2701
     17 N          59.7234   90.0939    6.6869 N.am    1  UNL1       -0.3008
     18 H          60.5229   90.6107    6.9379 H       1  UNL1        0.1497
     19 C          58.8859   90.5275    5.5204 C.3     1  UNL1        0.0896
     20 C          59.3679   91.6240    4.6174 C.3     1  UNL1        0.0181
     21 C          60.7785   91.1420    4.7851 C.3     1  UNL1        0.0017
     22 C          57.9574   92.1059    4.4497 C.3     1  UNL1        0.0017
     23 C          59.8499   92.7205    3.7144 C.3     1  UNL1        0.0017
     24 C          63.7001   83.7995   14.0299 C.2     1  UNL1        0.2459
     25 O          64.5395   83.3657   15.1949 O.2     1  UNL1       -0.2701
     26 N          62.9458   82.7806   13.2283 N.am    1  UNL1       -0.3025
     27 H          62.3949   83.0653   12.4636 H       1  UNL1        0.1497
     28 C          63.0308   81.3277   13.5916 C.3     1  UNL1        0.0720
     29 C          63.8250   80.1588   14.0944 C.3     1  UNL1        0.0213
     30 C          62.3839   79.9804   13.7182 C.3     1  UNL1        0.0213
@<TRIPOS>BOND
     1     1     2    1
     2     2     3   ar
     3     3     4    1
     4     3     5   ar
     5     5     6   ar
     6     6    24    1
     7    24    25    2
     8    24    26   am
     9    26    28    1
    10    28    29    1
    11    29    30    1
    12     6     7   ar
    13     7     8   ar
    14     8     9    1
    15     9    10   ar
    16    10    11   ar
    17    11    12   ar
    18    12    15    1
    19    15    16    2
    20    15    17   am
    21    17    19    1
    22    19    20    1
    23    20    21    1
    24    20    22    1
    25    20    23    1
    26    12    13   ar
    27    13    14   ar
    28     8     2   ar
    29    14     9   ar
    30    30    28    1
    31    26    27    1
    32    17    18    1
@<TRIPOS>MOLECULE
*****
 30 32 0 0 0
SMALL
GASTEIGER

@<TRIPOS>ATOM
      1 C          61.1960   89.7605   10.6224 C.3     1  UNL1        0.0334
      2 C          61.5673   88.3168   10.7894 C.ar    1  UNL1        0.0071
      3 C          60.8490   87.2617   10.0016 C.ar    1  UNL1        0.1363
      4 F          59.7593   87.6503    9.0467 F       1  UNL1       -0.2045
      5 C          61.2202   85.8180   10.1686 C.ar    1  UNL1        0.0338
      6 C          62.3098   85.4294   11.1234 C.ar    1  UNL1        0.0556
      7 C          63.0281   86.4845   11.9112 C.ar    1  UNL1        0.0058
      8 C          62.6569   87.9282   11.7442 C.ar    1  UNL1        0.0160
      9 C          63.3753   88.9833   12.5321 C.ar    1  UNL1        0.0811
     10 C          63.9110   88.6658   13.8967 C.ar    1  UNL1        0.0193
     11 C          64.6294   89.7208   14.6846 C.ar    1  UNL1        0.0076
     12 C          64.8120   91.0935   14.1079 C.ar    1  UNL1        0.0725
     13 C          64.2762   91.4110   12.7433 C.ar    1  UNL1        0.1033
     14 N          63.5578   90.3559   11.9554 N.ar    1  UNL1       -0.2437
     15 C          65.5303   92.1485   14.8958 C.2     1  UNL1        0.2474
     16 O          64.9686   92.6202   16.2042 O.2     1  UNL1       -0.2701
     17 N          66.8105   92.7319   14.3753 N.am    1  UNL1       -0.3008
     18 H          67.1792   92.4223   13.5166 H       1  UNL1        0.1497
     19 C          67.5288   93.7869   15.1632 C.3     1  UNL1        0.0896
     20 C          68.7944   93.4466   15.8929 C.3     1  UNL1        0.0181
     21 C          68.4688   91.9870   15.7770 C.3     1  UNL1        0.0017
     22 C          69.1201   94.9062   16.0089 C.3     1  UNL1        0.0017
     23 C          70.0600   93.1063   16.6227 C.3     1  UNL1        0.0017
     24 C          62.6811   83.9857   11.2904 C.2     1  UNL1        0.2459
     25 O          63.4165   83.2691   10.1970 O.2     1  UNL1       -0.2701
     26 N          62.3170   83.2586   12.5508 N.am    1  UNL1       -0.3025
     27 H          61.8343   83.7289   13.2685 H       1  UNL1        0.1497
     28 C          62.6882   81.8149   12.7178 C.3     1  UNL1        0.0720
     29 C          63.3288   80.7230   13.5225 C.3     1  UNL1        0.0213
     30 C          62.6907   80.4063   12.2024 C.3     1  UNL1        0.0213
@<TRIPOS>BOND
     1     1     2    1
     2     2     3   ar
     3     3     4    1
     4     3     5   ar
     5     5     6   ar
     6     6    24    1
     7    24    25    2
     8    24    26   am
     9    26    28    1
    10    28    29    1
    11    29    30    1
    12     6     7   ar
    13     7     8   ar
    14     8     9    1
    15     9    10   ar
    16    10    11   ar
    17    11    12   ar
    18    12    15    1
    19    15    16    2
    20    15    17   am
    21    17    19    1
    22    19    20    1
    23    20    21    1
    24    20    22    1
    25    20    23    1
    26    12    13   ar
    27    13    14   ar
    28     8     2   ar
    29    14     9   ar
    30    30    28    1
    31    26    27    1
    32    17    18    1
@<TRIPOS>MOLECULE
*****
 30 32 0 0 0
SMALL
GASTEIGER

@<TRIPOS>ATOM
      1 C          62.2052   88.8572   10.7246 C.3     1  UNL1        0.0334
      2 C          63.0759   89.5952   11.6979 C.ar    1  UNL1        0.0071
      3 C          63.3046   91.0684   11.5321 C.ar    1  UNL1        0.1363
      4 F          62.6628   91.8035   10.3930 F       1  UNL1       -0.2045
      5 C          64.1753   91.8064   12.5054 C.ar    1  UNL1        0.0338
      6 C          64.8171   91.0713   13.6445 C.ar    1  UNL1        0.0556
      7 C          64.5883   89.5982   13.8103 C.ar    1  UNL1        0.0058
      8 C          63.7177   88.8602   12.8370 C.ar    1  UNL1        0.0160
      9 C          63.4889   87.3870   13.0029 C.ar    1  UNL1        0.0811
     10 C          64.0784   86.6640   14.1776 C.ar    1  UNL1        0.0193
     11 C          63.8497   85.1909   14.3435 C.ar    1  UNL1        0.0076
     12 C          63.0314   84.4406   13.3346 C.ar    1  UNL1        0.0725
     13 C          62.4419   85.1636   12.1600 C.ar    1  UNL1        0.1033
     14 N          62.6707   86.6368   11.9941 N.ar    1  UNL1       -0.2437
     15 C          62.8027   82.9675   13.5005 C.2     1  UNL1        0.2474
     16 O          62.4245   82.4137   14.8422 O.2     1  UNL1       -0.2701
     17 N          62.9522   82.0482   12.3247 N.am    1  UNL1       -0.3008
     18 H          63.2005   82.4117   11.4441 H       1  UNL1        0.1497
     19 C          62.7235   80.5751   12.4906 C.3     1  UNL1        0.0896
     20 C          62.7443   79.6732   11.2922 C.3     1  UNL1        0.0181
     21 C          62.4440   78.4965   12.1726 C.3     1  UNL1        0.0017
     22 C          63.0446   80.8500   10.4118 C.3     1  UNL1        0.0017
     23 C          62.7650   78.7714   10.0938 C.3     1  UNL1        0.0017
     24 C          65.6878   91.8093   14.6178 C.2     1  UNL1        0.2459
     25 O          65.0836   92.4341   15.8404 O.2     1  UNL1       -0.2701
     26 N          67.1625   91.9226   14.3686 N.am    1  UNL1       -0.3025
     27 H          67.5591   91.5125   13.5662 H       1  UNL1        0.1497
     28 C          68.0332   92.6606   15.3419 C.3     1  UNL1        0.0720
     29 C          68.4692   93.9469   15.9785 C.3     1  UNL1        0.0213
     30 C          69.1051   92.6526   16.3911 C.3     1  UNL1        0.0213
@<TRIPOS>BOND
     1     1     2    1
     2     2     3   ar
     3     3     4    1
     4     3     5   ar
     5     5     6   ar
     6     6    24    1
     7    24    25    2
     8    24    26   am
     9    26    28    1
    10    28    29    1
    11    29    30    1
    12     6     7   ar
    13     7     8   ar
    14     8     9    1
    15     9    10   ar
    16    10    11   ar
    17    11    12   ar
    18    12    15    1
    19    15    16    2
    20    15    17   am
    21    17    19    1
    22    19    20    1
    23    20    21    1
    24    20    22    1
    25    20    23    1
    26    12    13   ar
    27    13    14   ar
    28     8     2   ar
    29    14     9   ar
    30    30    28    1
    31    26    27    1
    32    17    18    1
@<TRIPOS>MOLECULE
*****
 30 32 0 0 0
SMALL
GASTEIGER

@<TRIPOS>ATOM
      1 C          63.3283   84.2486    8.6112 C.3     1  UNL1        0.0334
      2 C          63.2419   84.4236   10.0984 C.ar    1  UNL1        0.0071
      3 C          64.0269   83.5240   11.0063 C.ar    1  UNL1        0.1363
      4 F          64.8985   82.4493   10.4270 F       1  UNL1       -0.2045
      5 C          63.9405   83.6990   12.4936 C.ar    1  UNL1        0.0338
      6 C          63.0691   84.7737   13.0729 C.ar    1  UNL1        0.0556
      7 C          62.2840   85.6733   12.1650 C.ar    1  UNL1        0.0058
      8 C          62.3704   85.4982   10.6777 C.ar    1  UNL1        0.0160
      9 C          61.5853   86.3979    9.7698 C.ar    1  UNL1        0.0811
     10 C          61.7040   87.8872    9.9038 C.ar    1  UNL1        0.0193
     11 C          60.9190   88.7869    8.9960 C.ar    1  UNL1        0.0076
     12 C          60.0151   88.1973    7.9541 C.ar    1  UNL1        0.0725
     13 C          59.8963   86.7080    7.8201 C.ar    1  UNL1        0.1033
     14 N          60.6814   85.8083    8.7280 N.ar    1  UNL1       -0.2437
     15 C          59.2300   89.0969    7.0462 C.2     1  UNL1        0.2474
     16 O          57.7464   88.9194    6.9142 O.2     1  UNL1       -0.2701
     17 N          59.9285   90.1741    6.2705 N.am    1  UNL1       -0.3008
     18 H          60.9022   90.2906    6.3572 H       1  UNL1        0.1497
     19 C          59.1434   91.0738    5.3626 C.3     1  UNL1        0.0896
     20 C          59.8395   91.8273    4.2683 C.3     1  UNL1        0.0181
     21 C          61.1505   91.2366    4.6953 C.3     1  UNL1        0.0017
     22 C          58.5285   92.4180    3.8412 C.3     1  UNL1        0.0017
     23 C          60.5355   92.5808    3.1739 C.3     1  UNL1        0.0017
     24 C          62.9827   84.9487   14.5601 C.2     1  UNL1        0.2459
     25 O          62.6934   83.7679   15.4387 O.2     1  UNL1       -0.2701
     26 N          63.1856   86.3045   15.1688 N.am    1  UNL1       -0.3025
     27 H          63.3754   87.0795   14.5922 H       1  UNL1        0.1497
     28 C          63.0992   86.4795   16.6561 C.3     1  UNL1        0.0720
     29 C          63.1577   85.8990   18.0379 C.3     1  UNL1        0.0213
     30 C          62.8910   87.3632   17.8501 C.3     1  UNL1        0.0213
@<TRIPOS>BOND
     1     1     2    1
     2     2     3   ar
     3     3     4    1
     4     3     5   ar
     5     5     6   ar
     6     6    24    1
     7    24    25    2
     8    24    26   am
     9    26    28    1
    10    28    29    1
    11    29    30    1
    12     6     7   ar
    13     7     8   ar
    14     8     9    1
    15     9    10   ar
    16    10    11   ar
    17    11    12   ar
    18    12    15    1
    19    15    16    2
    20    15    17   am
    21    17    19    1
    22    19    20    1
    23    20    21    1
    24    20    22    1
    25    20    23    1
    26    12    13   ar
    27    13    14   ar
    28     8     2   ar
    29    14     9   ar
    30    30    28    1
    31    26    27    1
    32    17    18    1
