@<TRIPOS>MOLECULE
*****
 26 29 0 0 0
SMALL
GASTEIGER

@<TRIPOS>ATOM
      1 C          63.3127   90.5809   13.5902 C.3     1  UNL1        0.2068
      2 O          63.7805   88.0558   13.1964 O.2     1  UNL1       -0.2739
      3 C          63.0778   89.3227   12.8079 C.2     1  UNL1        0.2419
      4 N          62.1402   89.3316   11.6370 N.am    1  UNL1       -0.2581
      5 C          61.3706   90.5163   11.1328 C.3     1  UNL1        0.1029
      6 C          60.5624   90.0742    9.9490 C.3     1  UNL1        0.0500
      7 C          60.8324   88.6163    9.7217 C.ar    1  UNL1       -0.0005
      8 C          60.3163   87.6474    8.6995 C.ar    1  UNL1        0.0318
      9 BR         59.3412   88.1064    7.6562 Br      1  UNL1       -0.0493
     10 C          60.7754   86.2196    8.7206 C.ar    1  UNL1        0.0065
     11 C          61.7506   85.7606    9.7639 C.ar    1  UNL1        0.0018
     12 C          62.2667   86.7295   10.7860 C.ar    1  UNL1        0.0146
     13 C          61.8076   88.1573   10.7649 C.ar    1  UNL1        0.0504
     14 C          64.6451   91.2668   13.5249 C.2     1  UNL1        0.3580
     15 N          64.9734   92.1587   12.3644 N.2     1  UNL1       -0.0039
     16 C          66.3058   92.8447   12.2991 C.2     1  UNL1        0.3159
     17 C          67.3098   92.6387   13.3944 C.3     1  UNL1        0.2333
     18 C          66.9814   91.7469   14.5548 C.2     1  UNL1        0.3644
     19 O          67.9855   91.5409   15.6501 O.2     1  UNL1       -0.2422
     20 N          65.6491   91.0609   14.6201 N.am    1  UNL1        0.0289
     21 N          66.6341   93.7366   11.1386 N.pl3   1  UNL1       -0.1888
     22 C          66.2443   95.1846   11.1718 C.3     1  UNL1        0.2343
     23 C          66.5726   96.0765   10.0114 C.3     1  UNL1        0.1929
     24 O          67.2907   95.5203    8.8177 O.3     1  UNL1       -0.3449
     25 C          67.6806   94.0722    8.7845 C.3     1  UNL1        0.1929
     26 C          67.3523   93.1803    9.9449 C.3     1  UNL1        0.2343
@<TRIPOS>BOND
     1     2     3    2
     2     3     1    1
     3     1    14    1
     4    14    15    1
     5    15    16    2
     6    16    21    1
     7    21    22    1
     8    22    23    1
     9    23    24    1
    10    24    25    1
    11    25    26    1
    12    16    17    1
    13    17    18    1
    14    18    19    2
    15    18    20    1
    16     3     4   am
    17     4     5    1
    18     5     6    1
    19     6     7    1
    20     7     8   ar
    21     8     9    1
    22     8    10   ar
    23    10    11   ar
    24    11    12   ar
    25    12    13   ar
    26    20    14    2
    27    13     4    1
    28    26    21    1
    29    13     7   ar
@<TRIPOS>MOLECULE
*****
 26 29 0 0 0
SMALL
GASTEIGER

@<TRIPOS>ATOM
      1 C          61.6406   89.1405   11.1504 C.3     1  UNL1        0.2068
      2 O          62.9406   90.9827    9.8594 O.2     1  UNL1       -0.2739
      3 C          62.6844   90.2177   11.1239 C.2     1  UNL1        0.2419
      4 N          63.4717   90.5296   12.3619 N.am    1  UNL1       -0.2581
      5 C          63.3274   89.8525   13.6926 C.3     1  UNL1        0.1029
      6 C          64.3081   90.4779   14.6397 C.3     1  UNL1        0.0500
      7 C          65.0587   91.5414   13.8944 C.ar    1  UNL1       -0.0005
      8 C          66.1460   92.4849   14.3157 C.ar    1  UNL1        0.0318
      9 BR         66.6629   92.4529   15.7234 Br      1  UNL1       -0.0493
     10 C          66.7164   93.4603   13.3292 C.ar    1  UNL1        0.0065
     11 C          66.1995   93.4923   11.9215 C.ar    1  UNL1        0.0018
     12 C          65.1122   92.5488   11.5002 C.ar    1  UNL1        0.0146
     13 C          64.5418   91.5734   12.4866 C.ar    1  UNL1        0.0504
     14 C          62.0231   87.7184   10.8654 C.2     1  UNL1        0.3580
     15 N          62.3485   86.7883   11.9964 N.2     1  UNL1       -0.0039
     16 C          62.7310   85.3661   11.7115 C.2     1  UNL1        0.3159
     17 C          62.7881   84.8742   10.2956 C.3     1  UNL1        0.2333
     18 C          62.4627   85.8043    9.1647 C.2     1  UNL1        0.3644
     19 O          62.5198   85.3122    7.7488 O.2     1  UNL1       -0.2422
     20 N          62.0802   87.2264    9.4496 N.am    1  UNL1        0.0289
     21 N          63.0564   84.4360   12.8424 N.pl3   1  UNL1       -0.1888
     22 C          63.7403   84.9592   14.0706 C.3     1  UNL1        0.2343
     23 C          64.0657   84.0291   15.2015 C.3     1  UNL1        0.1929
     24 O          63.7072   82.5758   15.1042 O.3     1  UNL1       -0.3449
     25 C          63.0232   82.0526   13.8759 C.3     1  UNL1        0.1929
     26 C          62.6979   82.9827   12.7450 C.3     1  UNL1        0.2343
@<TRIPOS>BOND
     1     2     3    2
     2     3     1    1
     3     1    14    1
     4    14    15    1
     5    15    16    2
     6    16    21    1
     7    21    22    1
     8    22    23    1
     9    23    24    1
    10    24    25    1
    11    25    26    1
    12    16    17    1
    13    17    18    1
    14    18    19    2
    15    18    20    1
    16     3     4   am
    17     4     5    1
    18     5     6    1
    19     6     7    1
    20     7     8   ar
    21     8     9    1
    22     8    10   ar
    23    10    11   ar
    24    11    12   ar
    25    12    13   ar
    26    20    14    2
    27    13     4    1
    28    26    21    1
    29    13     7   ar
@<TRIPOS>MOLECULE
*****
 26 29 0 0 0
SMALL
GASTEIGER

@<TRIPOS>ATOM
      1 C          60.7769   89.5415   12.0158 C.3     1  UNL1        0.2068
      2 O          62.2475   89.7848   14.1437 O.2     1  UNL1       -0.2739
      3 C          62.0170   90.0542   12.6863 C.2     1  UNL1        0.2419
      4 N          63.0264   90.8363   11.8992 N.am    1  UNL1       -0.2581
      5 C          62.9328   91.1823   10.4427 C.3     1  UNL1        0.1029
      6 C          64.1552   91.9695   10.0739 C.3     1  UNL1        0.0500
      7 C          65.0043   92.1100   11.3025 C.ar    1  UNL1       -0.0005
      8 C          66.3225   92.7852   11.5396 C.ar    1  UNL1        0.0318
      9 BR         67.0202   93.4856   10.4115 Br      1  UNL1       -0.0493
     10 C          66.9431   92.7600   12.9050 C.ar    1  UNL1        0.0065
     11 C          66.2455   92.0595   14.0331 C.ar    1  UNL1        0.0018
     12 C          64.9272   91.3844   13.7959 C.ar    1  UNL1        0.0146
     13 C          64.3066   91.4096   12.4306 C.ar    1  UNL1        0.0504
     14 C          60.8510   88.3424   11.1176 C.2     1  UNL1        0.3580
     15 N          61.7811   87.2133   11.4492 N.2     1  UNL1       -0.0039
     16 C          61.8553   86.0142   10.5510 C.2     1  UNL1        0.3159
     17 C          60.9993   85.9444    9.3212 C.3     1  UNL1        0.2333
     18 C          60.0693   87.0735    8.9896 C.2     1  UNL1        0.3644
     19 O          59.2133   87.0036    7.7597 O.2     1  UNL1       -0.2422
     20 N          59.9951   88.2726    9.8878 N.am    1  UNL1        0.0289
     21 N          62.7854   84.8851   10.8827 N.pl3   1  UNL1       -0.1888
     22 C          63.1107   84.5772   12.3142 C.3     1  UNL1        0.2343
     23 C          64.0408   83.4481   12.6458 C.3     1  UNL1        0.1929
     24 O          64.6455   82.6268   11.5459 O.3     1  UNL1       -0.3449
     25 C          64.3201   82.9347   10.1143 C.3     1  UNL1        0.1929
     26 C          63.3900   84.0638    9.7827 C.3     1  UNL1        0.2343
@<TRIPOS>BOND
     1     2     3    2
     2     3     1    1
     3     1    14    1
     4    14    15    1
     5    15    16    2
     6    16    21    1
     7    21    22    1
     8    22    23    1
     9    23    24    1
    10    24    25    1
    11    25    26    1
    12    16    17    1
    13    17    18    1
    14    18    19    2
    15    18    20    1
    16     3     4   am
    17     4     5    1
    18     5     6    1
    19     6     7    1
    20     7     8   ar
    21     8     9    1
    22     8    10   ar
    23    10    11   ar
    24    11    12   ar
    25    12    13   ar
    26    20    14    2
    27    13     4    1
    28    26    21    1
    29    13     7   ar
@<TRIPOS>MOLECULE
*****
 26 29 0 0 0
SMALL
GASTEIGER

@<TRIPOS>ATOM
      1 C          63.6286   90.0745   13.1798 C.3     1  UNL1        0.2068
      2 O          64.6802   88.5943   15.0381 O.2     1  UNL1       -0.2739
      3 C          63.9291   88.7181   13.7456 C.2     1  UNL1        0.2419
      4 N          63.4785   87.4857   13.0190 N.am    1  UNL1       -0.2581
      5 C          62.7224   87.4526   11.7239 C.3     1  UNL1        0.1029
      6 C          62.4815   86.0164   11.3644 C.3     1  UNL1        0.0500
      7 C          63.0886   85.1618   12.4373 C.ar    1  UNL1       -0.0005
      8 C          63.1600   83.6742   12.6152 C.ar    1  UNL1        0.0318
      9 BR         62.5438   82.7661   11.5925 Br      1  UNL1       -0.0493
     10 C          63.8475   83.0945   13.8157 C.ar    1  UNL1        0.0065
     11 C          64.4637   84.0026   14.8383 C.ar    1  UNL1        0.0018
     12 C          64.3923   85.4903   14.6604 C.ar    1  UNL1        0.0146
     13 C          63.7048   86.0699   13.4599 C.ar    1  UNL1        0.0504
     14 C          64.5786   91.2117   13.4130 C.2     1  UNL1        0.3580
     15 N          65.0405   92.0517   12.2593 N.2     1  UNL1       -0.0039
     16 C          65.9904   93.1889   12.4925 C.2     1  UNL1        0.3159
     17 C          66.4784   93.4860   13.8795 C.3     1  UNL1        0.2333
     18 C          66.0165   92.6460   15.0331 C.2     1  UNL1        0.3644
     19 O          66.5046   92.9431   16.4201 O.2     1  UNL1       -0.2422
     20 N          65.0665   91.5088   14.7999 N.am    1  UNL1        0.0289
     21 N          66.4524   94.0289   11.3389 N.pl3   1  UNL1       -0.1888
     22 C          67.1484   93.3874   10.1753 C.3     1  UNL1        0.2343
     23 C          67.6103   94.2274    9.0216 C.3     1  UNL1        0.1929
     24 O          67.3762   95.7090    9.0315 O.3     1  UNL1       -0.3449
     25 C          66.6802   96.3506   10.1952 C.3     1  UNL1        0.1929
     26 C          66.2182   95.5105   11.3489 C.3     1  UNL1        0.2343
@<TRIPOS>BOND
     1     2     3    2
     2     3     1    1
     3     1    14    1
     4    14    15    1
     5    15    16    2
     6    16    21    1
     7    21    22    1
     8    22    23    1
     9    23    24    1
    10    24    25    1
    11    25    26    1
    12    16    17    1
    13    17    18    1
    14    18    19    2
    15    18    20    1
    16     3     4   am
    17     4     5    1
    18     5     6    1
    19     6     7    1
    20     7     8   ar
    21     8     9    1
    22     8    10   ar
    23    10    11   ar
    24    11    12   ar
    25    12    13   ar
    26    20    14    2
    27    13     4    1
    28    26    21    1
    29    13     7   ar
@<TRIPOS>MOLECULE
*****
 26 29 0 0 0
SMALL
GASTEIGER

@<TRIPOS>ATOM
      1 C          63.5566   90.5930   13.9836 C.3     1  UNL1        0.2068
      2 O          62.3744   89.7358   11.8347 O.2     1  UNL1       -0.2739
      3 C          63.1495   89.4599   13.0888 C.2     1  UNL1        0.2419
      4 N          63.5178   88.0509   13.4483 N.am    1  UNL1       -0.2581
      5 C          64.2864   87.6231   14.6633 C.3     1  UNL1        0.1029
      6 C          64.4256   86.1302   14.6218 C.3     1  UNL1        0.0500
      7 C          63.7431   85.6353   13.3811 C.ar    1  UNL1       -0.0005
      8 C          63.5600   84.2571   12.8181 C.ar    1  UNL1        0.0318
      9 BR         64.1211   83.0700   13.5434 Br      1  UNL1       -0.0493
     10 C          62.8159   84.0660   11.5299 C.ar    1  UNL1        0.0065
     11 C          62.2548   85.2530   10.8046 C.ar    1  UNL1        0.0018
     12 C          62.4378   86.6312   11.3676 C.ar    1  UNL1        0.0146
     13 C          63.1820   86.8223   12.6559 C.ar    1  UNL1        0.0504
     14 C          64.9060   91.2280   13.8229 C.2     1  UNL1        0.3580
     15 N          65.3103   91.8054   12.4989 N.2     1  UNL1       -0.0039
     16 C          66.6598   92.4405   12.3383 C.2     1  UNL1        0.3159
     17 C          67.6048   92.4980   13.5017 C.3     1  UNL1        0.2333
     18 C          67.2005   91.9205   14.8257 C.2     1  UNL1        0.3644
     19 O          68.1456   91.9781   15.9892 O.2     1  UNL1       -0.2422
     20 N          65.8510   91.2855   14.9863 N.am    1  UNL1        0.0289
     21 N          67.0641   93.0179   11.0142 N.pl3   1  UNL1       -0.1888
     22 C          66.5436   94.3594   10.5907 C.3     1  UNL1        0.2343
     23 C          66.9480   94.9368    9.2667 C.3     1  UNL1        0.1929
     24 O          67.8728   94.1728    8.3662 O.3     1  UNL1       -0.3449
     25 C          68.3933   92.8312    8.7898 C.3     1  UNL1        0.1929
     26 C          67.9890   92.2537   10.1138 C.3     1  UNL1        0.2343
@<TRIPOS>BOND
     1     2     3    2
     2     3     1    1
     3     1    14    1
     4    14    15    1
     5    15    16    2
     6    16    21    1
     7    21    22    1
     8    22    23    1
     9    23    24    1
    10    24    25    1
    11    25    26    1
    12    16    17    1
    13    17    18    1
    14    18    19    2
    15    18    20    1
    16     3     4   am
    17     4     5    1
    18     5     6    1
    19     6     7    1
    20     7     8   ar
    21     8     9    1
    22     8    10   ar
    23    10    11   ar
    24    11    12   ar
    25    12    13   ar
    26    20    14    2
    27    13     4    1
    28    26    21    1
    29    13     7   ar
@<TRIPOS>MOLECULE
*****
 26 29 0 0 0
SMALL
GASTEIGER

@<TRIPOS>ATOM
      1 C          64.4344   86.5322   14.5527 C.3     1  UNL1        0.2068
      2 O          62.7314   85.0812   15.8735 O.2     1  UNL1       -0.2739
      3 C          63.6224   85.2776   14.6830 C.2     1  UNL1        0.2419
      4 N          63.7017   84.2194   13.6228 N.am    1  UNL1       -0.2581
      5 C          64.5437   84.2752   12.3827 C.3     1  UNL1        0.1029
      6 C          64.3152   83.0100   11.6100 C.3     1  UNL1        0.0500
      7 C          63.3320   82.1722   12.3726 C.ar    1  UNL1       -0.0005
      8 C          62.7330   80.8254   12.0950 C.ar    1  UNL1        0.0318
      9 BR         63.1121   80.0779   10.8510 Br      1  UNL1       -0.0493
     10 C          61.7548   80.2260   13.0613 C.ar    1  UNL1        0.0065
     11 C          61.3756   80.9735   14.3053 C.ar    1  UNL1        0.0018
     12 C          61.9746   82.3204   14.5829 C.ar    1  UNL1        0.0146
     13 C          62.9528   82.9198   13.6166 C.ar    1  UNL1        0.0504
     14 C          63.9278   87.6699   13.7166 C.2     1  UNL1        0.3580
     15 N          63.0836   87.3945   12.5077 N.2     1  UNL1       -0.0039
     16 C          62.5771   88.5322   11.6716 C.2     1  UNL1        0.3159
     17 C          62.9147   89.9453   12.0445 C.3     1  UNL1        0.2333
     18 C          63.7589   90.2207   13.2535 C.2     1  UNL1        0.3644
     19 O          64.0965   91.6339   13.6264 O.2     1  UNL1       -0.2422
     20 N          64.2654   89.0830   14.0895 N.am    1  UNL1        0.0289
     21 N          61.7329   88.2567   10.4627 N.pl3   1  UNL1       -0.1888
     22 C          61.6790   86.8735    9.8850 C.3     1  UNL1        0.2343
     23 C          60.8348   86.5981    8.6760 C.3     1  UNL1        0.1929
     24 O          60.0447   87.7059    8.0448 O.3     1  UNL1       -0.3449
     25 C          60.0986   89.0892    8.6225 C.3     1  UNL1        0.1929
     26 C          60.9428   89.3646    9.8315 C.3     1  UNL1        0.2343
@<TRIPOS>BOND
     1     2     3    2
     2     3     1    1
     3     1    14    1
     4    14    15    1
     5    15    16    2
     6    16    21    1
     7    21    22    1
     8    22    23    1
     9    23    24    1
    10    24    25    1
    11    25    26    1
    12    16    17    1
    13    17    18    1
    14    18    19    2
    15    18    20    1
    16     3     4   am
    17     4     5    1
    18     5     6    1
    19     6     7    1
    20     7     8   ar
    21     8     9    1
    22     8    10   ar
    23    10    11   ar
    24    11    12   ar
    25    12    13   ar
    26    20    14    2
    27    13     4    1
    28    26    21    1
    29    13     7   ar
@<TRIPOS>MOLECULE
*****
 26 29 0 0 0
SMALL
GASTEIGER

@<TRIPOS>ATOM
      1 C          64.2641   88.2229   13.9024 C.3     1  UNL1        0.2068
      2 O          63.1733   90.3456   12.8755 O.2     1  UNL1       -0.2739
      3 C          63.3836   88.8605   12.8687 C.2     1  UNL1        0.2419
      4 N          62.7136   88.0128   11.8282 N.am    1  UNL1       -0.2581
      5 C          62.8293   86.5231   11.6963 C.3     1  UNL1        0.1029
      6 C          61.9974   86.0957   10.5236 C.3     1  UNL1        0.0500
      7 C          61.3677   87.3213    9.9307 C.ar    1  UNL1       -0.0005
      8 C          60.4484   87.5114    8.7608 C.ar    1  UNL1        0.0318
      9 BR         60.0058   86.3265    7.9544 Br      1  UNL1       -0.0493
     10 C          59.9717   88.8863    8.3972 C.ar    1  UNL1        0.0065
     11 C          60.4144   90.0712    9.2035 C.ar    1  UNL1        0.0018
     12 C          61.3337   89.8811   10.3734 C.ar    1  UNL1        0.0146
     13 C          61.8103   88.5061   10.7370 C.ar    1  UNL1        0.0504
     14 C          63.7518   87.0727   14.7176 C.2     1  UNL1        0.3580
     15 N          63.6564   85.7053   14.1083 N.2     1  UNL1       -0.0039
     16 C          63.1442   84.5550   14.9235 C.2     1  UNL1        0.3159
     17 C          62.7274   84.7722   16.3479 C.3     1  UNL1        0.2333
     18 C          62.8228   86.1395   16.9572 C.2     1  UNL1        0.3644
     19 O          62.4060   86.3566   18.3818 O.2     1  UNL1       -0.2422
     20 N          63.3351   87.2898   16.1420 N.am    1  UNL1        0.0289
     21 N          63.0488   83.1877   14.3142 N.pl3   1  UNL1       -0.1888
     22 C          61.8708   82.3109   14.6199 C.3     1  UNL1        0.2343
     23 C          61.7753   80.9436   14.0106 C.3     1  UNL1        0.1929
     24 O          62.8580   80.4530   13.0956 O.3     1  UNL1       -0.3449
     25 C          64.0361   81.3299   12.7898 C.3     1  UNL1        0.1929
     26 C          64.1315   82.6972   13.3991 C.3     1  UNL1        0.2343
@<TRIPOS>BOND
     1     2     3    2
     2     3     1    1
     3     1    14    1
     4    14    15    1
     5    15    16    2
     6    16    21    1
     7    21    22    1
     8    22    23    1
     9    23    24    1
    10    24    25    1
    11    25    26    1
    12    16    17    1
    13    17    18    1
    14    18    19    2
    15    18    20    1
    16     3     4   am
    17     4     5    1
    18     5     6    1
    19     6     7    1
    20     7     8   ar
    21     8     9    1
    22     8    10   ar
    23    10    11   ar
    24    11    12   ar
    25    12    13   ar
    26    20    14    2
    27    13     4    1
    28    26    21    1
    29    13     7   ar
@<TRIPOS>MOLECULE
*****
 26 29 0 0 0
SMALL
GASTEIGER

@<TRIPOS>ATOM
      1 C          64.5559   86.4479   14.9767 C.3     1  UNL1        0.2068
      2 O          62.6391   85.0965   16.0945 O.2     1  UNL1       -0.2739
      3 C          63.6489   85.2532   14.9966 C.2     1  UNL1        0.2419
      4 N          63.7520   84.2154   13.9185 N.am    1  UNL1       -0.2581
      5 C          64.7078   84.2366   12.7627 C.3     1  UNL1        0.1029
      6 C          64.4638   83.0084   11.9368 C.3     1  UNL1        0.0500
      7 C          63.3571   82.2282   12.5822 C.ar    1  UNL1       -0.0005
      8 C          62.6931   80.9349   12.2128 C.ar    1  UNL1        0.0318
      9 BR         63.1331   80.1889   10.9881 Br      1  UNL1       -0.0493
     10 C          61.5893   80.3875   13.0682 C.ar    1  UNL1        0.0065
     11 C          61.1493   81.1334   14.2930 C.ar    1  UNL1        0.0018
     12 C          61.8133   82.4267   14.6623 C.ar    1  UNL1        0.0146
     13 C          62.9172   82.9741   13.8069 C.ar    1  UNL1        0.0504
     14 C          64.2211   87.6295   14.1155 C.2     1  UNL1        0.3580
     15 N          64.8840   88.9516   14.3654 N.2     1  UNL1       -0.0039
     16 C          64.5492   90.1332   13.5041 C.2     1  UNL1        0.3159
     17 C          63.5514   89.9925   12.3930 C.3     1  UNL1        0.2333
     18 C          62.8884   88.6704   12.1431 C.2     1  UNL1        0.3644
     19 O          61.8906   88.5298   11.0319 O.2     1  UNL1       -0.2422
     20 N          63.2233   87.4888   13.0044 N.am    1  UNL1        0.0289
     21 N          65.2121   91.4553   13.7540 N.pl3   1  UNL1       -0.1888
     22 C          65.6616   91.8192   15.1380 C.3     1  UNL1        0.2343
     23 C          66.3246   93.1413   15.3879 C.3     1  UNL1        0.1929
     24 O          66.5381   94.0995   14.2537 O.3     1  UNL1       -0.3449
     25 C          66.0886   93.7356   12.8696 C.3     1  UNL1        0.1929
     26 C          65.4256   92.4135   12.6197 C.3     1  UNL1        0.2343
@<TRIPOS>BOND
     1     2     3    2
     2     3     1    1
     3     1    14    1
     4    14    15    1
     5    15    16    2
     6    16    21    1
     7    21    22    1
     8    22    23    1
     9    23    24    1
    10    24    25    1
    11    25    26    1
    12    16    17    1
    13    17    18    1
    14    18    19    2
    15    18    20    1
    16     3     4   am
    17     4     5    1
    18     5     6    1
    19     6     7    1
    20     7     8   ar
    21     8     9    1
    22     8    10   ar
    23    10    11   ar
    24    11    12   ar
    25    12    13   ar
    26    20    14    2
    27    13     4    1
    28    26    21    1
    29    13     7   ar
@<TRIPOS>MOLECULE
*****
 26 29 0 0 0
SMALL
GASTEIGER

@<TRIPOS>ATOM
      1 C          61.2988   87.2267    8.7340 C.3     1  UNL1        0.2068
      2 O          62.7514   85.2793    7.8135 O.2     1  UNL1       -0.2739
      3 C          62.1216   85.9951    8.9714 C.2     1  UNL1        0.2419
      4 N          62.3144   85.4793   10.3667 N.am    1  UNL1       -0.2581
      5 C          61.7492   86.0857   11.6168 C.3     1  UNL1        0.1029
      6 C          62.1918   85.2478   12.7795 C.3     1  UNL1        0.0500
      7 C          63.0305   84.1234   12.2480 C.ar    1  UNL1       -0.0005
      8 C          63.7349   82.9879   12.9292 C.ar    1  UNL1        0.0318
      9 BR         63.6592   82.8448   14.4205 Br      1  UNL1       -0.0493
     10 C          64.5152   81.9954   12.1192 C.ar    1  UNL1        0.0065
     11 C          64.5910   82.1385   10.6280 C.ar    1  UNL1        0.0018
     12 C          63.8865   83.2741    9.9468 C.ar    1  UNL1        0.0146
     13 C          63.1062   84.2665   10.7568 C.ar    1  UNL1        0.0504
     14 C          61.2051   88.2822    9.7957 C.2     1  UNL1        0.3580
     15 N          62.4034   89.1213   10.1269 N.2     1  UNL1       -0.0039
     16 C          62.3097   90.1767   11.1887 C.2     1  UNL1        0.3159
     17 C          61.0176   90.3930   11.9191 C.3     1  UNL1        0.2333
     18 C          59.8192   89.5539   11.5879 C.2     1  UNL1        0.3644
     19 O          58.5270   89.7702   12.3184 O.2     1  UNL1       -0.2422
     20 N          59.9129   88.4984   10.5262 N.am    1  UNL1        0.0289
     21 N          63.5081   91.0159   11.5199 N.pl3   1  UNL1       -0.1888
     22 C          64.0771   90.9962   12.9076 C.3     1  UNL1        0.2343
     23 C          65.2755   91.8353   13.2388 C.3     1  UNL1        0.1929
     24 O          65.9049   92.6941   12.1823 O.3     1  UNL1       -0.3449
     25 C          65.3359   92.7138   10.7945 C.3     1  UNL1        0.1929
     26 C          64.1375   91.8747   10.4632 C.3     1  UNL1        0.2343
@<TRIPOS>BOND
     1     2     3    2
     2     3     1    1
     3     1    14    1
     4    14    15    1
     5    15    16    2
     6    16    21    1
     7    21    22    1
     8    22    23    1
     9    23    24    1
    10    24    25    1
    11    25    26    1
    12    16    17    1
    13    17    18    1
    14    18    19    2
    15    18    20    1
    16     3     4   am
    17     4     5    1
    18     5     6    1
    19     6     7    1
    20     7     8   ar
    21     8     9    1
    22     8    10   ar
    23    10    11   ar
    24    11    12   ar
    25    12    13   ar
    26    20    14    2
    27    13     4    1
    28    26    21    1
    29    13     7   ar
