@<TRIPOS>MOLECULE
*****
 34 39 0 0 0
SMALL
GASTEIGER

@<TRIPOS>ATOM
      1 C          62.7998   82.5593   10.2808 C.3     1  UNL1        0.0536
      2 C          63.3813   82.8008   11.6423 C.ar    1  UNL1        0.0751
      3 N          63.9358   81.6545   12.4350 N.ar    1  UNL1       -0.2467
      4 C          64.5173   81.8960   13.7965 C.ar    1  UNL1        0.0986
      5 C          64.5442   83.2837   14.3652 C.ar    1  UNL1        0.0222
      6 C          63.9896   84.4299   13.5725 C.ar    1  UNL1        0.0229
      7 C          63.8795   85.8960   13.8702 C.ar    1  UNL1        0.0549
      8 C          64.2868   86.7116   15.0613 C.ar    1  UNL1        0.1048
      9 N          64.0445   88.1919   15.0750 N.ar    1  UNL1       -0.2119
     10 C          63.3950   88.8565   13.8976 C.ar    1  UNL1        0.2231
     11 N          62.9878   88.0409   12.7064 N.ar    1  UNL1       -0.1961
     12 C          63.2300   86.5606   12.6927 C.ar    1  UNL1        0.1482
     13 N          62.9387   85.5053   11.6673 N.ar    1  UNL1       -0.3135
     14 C          63.4081   84.1885   12.2110 C.ar    1  UNL1        0.0747
     15 C          62.2916   85.7278   10.3325 C.3     1  UNL1        0.0869
     16 C          62.9036   85.4311    8.9956 C.3     1  UNL1        0.0226
     17 C          61.9091   85.8059    7.9370 C.3     1  UNL1        0.0020
     18 C          60.6824   86.3342    8.6197 C.3     1  UNL1        0.0020
     19 C          60.9188   86.2858   10.1002 C.3     1  UNL1        0.0226
     20 N          63.1528   90.3368   13.9112 N.pl3   1  UNL1       -0.2679
     21 H          62.4676   90.7180   14.5066 H       1  UNL1        0.1565
     22 C          63.9546   91.2362   13.0179 C.ar    1  UNL1        0.1344
     23 C          63.7064   91.2390   11.5386 C.ar    1  UNL1        0.0358
     24 C          64.5083   92.1384   10.6452 C.ar    1  UNL1        0.0190
     25 C          65.5583   93.0351   11.2313 C.ar    1  UNL1        0.0675
     26 C          65.8066   93.0323   12.7106 C.ar    1  UNL1        0.1147
     27 N          65.0047   92.1328   13.6039 N.ar    1  UNL1       -0.2277
     28 N          66.3602   93.9346   10.3380 N.pl3   1  UNL1       -0.3035
     29 C          66.1233   95.4156   10.3572 C.3     1  UNL1        0.1079
     30 C          66.9252   96.3150    9.4639 C.3     1  UNL1        0.0903
     31 N          67.9639   95.7335    8.5514 N.3     1  UNL1       -0.2946
     32 C          68.2008   94.2525    8.5322 C.3     1  UNL1        0.0903
     33 C          67.3990   93.3530    9.4254 C.3     1  UNL1        0.1079
     34 H          68.8516   96.1705    8.7994 H       1  UNL1        0.1233
@<TRIPOS>BOND
     1     1     2    1
     2     2     3   ar
     3     3     4   ar
     4     4     5   ar
     5     5     6   ar
     6     6     7   ar
     7     7     8   ar
     8     8     9   ar
     9     9    10   ar
    10    10    20    1
    11    20    22    1
    12    22    23   ar
    13    23    24   ar
    14    24    25   ar
    15    25    28    1
    16    28    29    1
    17    29    30    1
    18    30    31    1
    19    31    32    1
    20    32    33    1
    21    25    26   ar
    22    26    27   ar
    23    10    11   ar
    24    11    12   ar
    25    12    13   ar
    26    13    15    1
    27    15    16    1
    28    16    17    1
    29    17    18    1
    30    18    19    1
    31    13    14   ar
    32    14     2   ar
    33    14     6   ar
    34    12     7   ar
    35    19    15    1
    36    27    22   ar
    37    33    28    1
    38    20    21    1
    39    31    34    1
@<TRIPOS>MOLECULE
*****
 34 39 0 0 0
SMALL
GASTEIGER

@<TRIPOS>ATOM
      1 C          63.2916   81.5531   14.5230 C.3     1  UNL1        0.0536
      2 C          63.1363   81.6640   13.0351 C.ar    1  UNL1        0.0751
      3 N          63.1596   80.4287   12.1846 N.ar    1  UNL1       -0.2467
      4 C          63.0043   80.5396   10.6967 C.ar    1  UNL1        0.0986
      5 C          62.8257   81.8857   10.0595 C.ar    1  UNL1        0.0222
      6 C          62.8024   83.1209   10.9101 C.ar    1  UNL1        0.0229
      7 C          62.6436   84.5726   10.5675 C.ar    1  UNL1        0.0549
      8 C          62.4543   85.2801    9.2585 C.ar    1  UNL1        0.1048
      9 N          62.3221   86.7739    9.2255 N.ar    1  UNL1       -0.2119
     10 C          62.3793   87.5603   10.5015 C.ar    1  UNL1        0.2231
     11 N          62.5685   86.8528   11.8106 N.ar    1  UNL1       -0.1961
     12 C          62.7007   85.3590   11.8436 C.ar    1  UNL1        0.1482
     13 N          62.8949   84.3933   12.9748 N.ar    1  UNL1       -0.3135
     14 C          62.9577   83.0101   12.3979 C.ar    1  UNL1        0.0747
     15 C          63.0066   84.7484   14.4279 C.3     1  UNL1        0.0869
     16 C          61.9730   84.4833   15.4822 C.3     1  UNL1        0.0226
     17 C          62.4991   85.0020   16.7877 C.3     1  UNL1        0.0020
     18 C          63.8577   85.5877   16.5402 C.3     1  UNL1        0.0020
     19 C          64.1712   85.4309   15.0818 C.3     1  UNL1        0.0226
     20 N          62.2471   89.0541   10.4685 N.pl3   1  UNL1       -0.2679
     21 H          61.5794   89.4763    9.8811 H       1  UNL1        0.1565
     22 C          63.1323   89.9045   11.3306 C.ar    1  UNL1        0.1344
     23 C          63.7916   91.1232   10.7563 C.ar    1  UNL1        0.0358
     24 C          64.6768   91.9737   11.6184 C.ar    1  UNL1        0.0190
     25 C          64.9027   91.6053   13.0548 C.ar    1  UNL1        0.0675
     26 C          64.2434   90.3865   13.6291 C.ar    1  UNL1        0.1147
     27 N          63.3581   89.5360   12.7670 N.ar    1  UNL1       -0.2277
     28 N          65.7879   92.4557   13.9170 N.pl3   1  UNL1       -0.3035
     29 C          66.1401   92.0058   15.3039 C.3     1  UNL1        0.1079
     30 C          67.0253   92.8562   16.1660 C.3     1  UNL1        0.0903
     31 N          67.5583   94.1563   15.6413 N.3     1  UNL1       -0.2946
     32 C          67.2061   94.6061   14.2543 C.3     1  UNL1        0.0903
     33 C          66.3209   93.7559   13.3922 C.3     1  UNL1        0.1079
     34 H          68.5756   94.0952   15.6816 H       1  UNL1        0.1233
@<TRIPOS>BOND
     1     1     2    1
     2     2     3   ar
     3     3     4   ar
     4     4     5   ar
     5     5     6   ar
     6     6     7   ar
     7     7     8   ar
     8     8     9   ar
     9     9    10   ar
    10    10    20    1
    11    20    22    1
    12    22    23   ar
    13    23    24   ar
    14    24    25   ar
    15    25    28    1
    16    28    29    1
    17    29    30    1
    18    30    31    1
    19    31    32    1
    20    32    33    1
    21    25    26   ar
    22    26    27   ar
    23    10    11   ar
    24    11    12   ar
    25    12    13   ar
    26    13    15    1
    27    15    16    1
    28    16    17    1
    29    17    18    1
    30    18    19    1
    31    13    14   ar
    32    14     2   ar
    33    14     6   ar
    34    12     7   ar
    35    19    15    1
    36    27    22   ar
    37    33    28    1
    38    20    21    1
    39    31    34    1
