@<TRIPOS>MOLECULE
*****
 39 44 0 0 0
SMALL
GASTEIGER

@<TRIPOS>ATOM
      1 C          62.5684   89.9525   10.7834 C.ar    1  UNL1        0.0568
      2 C          61.6944   90.4825    9.6857 C.ar    1  UNL1        0.1236
      3 N          60.8569   89.3491    9.1719 N.ar    1  UNL1       -0.1610
      4 N          61.2133   88.1186    9.9522 N.ar    1  UNL1       -0.1987
      5 C          60.7113   86.7068    9.8844 C.ar    1  UNL1        0.1344
      6 C          61.2671   85.6677   10.8127 C.ar    1  UNL1        0.0682
      7 C          62.3249   86.0406   11.8087 C.ar    1  UNL1        0.1330
      8 N          62.8269   87.4526   11.8764 N.ar    1  UNL1       -0.2119
      9 C          62.2711   88.4915   10.9482 C.ar    1  UNL1        0.1679
     10 C          66.2152   93.6461   11.0242 C.3     1  UNL1        0.0312
     11 C          65.3883   92.5912   11.6976 C.ar    1  UNL1       -0.0175
     12 C          64.3918   91.7993   10.9039 C.ar    1  UNL1       -0.0040
     13 C          63.5649   90.7444   11.5772 C.ar    1  UNL1        0.0042
     14 C          63.7343   90.4814   13.0442 C.ar    1  UNL1        0.0003
     15 C          64.7308   91.2734   13.8378 C.ar    1  UNL1        0.0042
     16 C          65.5578   92.3283   13.1645 C.ar    1  UNL1        0.0494
     17 C          66.5543   93.1202   13.9583 C.2     1  UNL1        0.2455
     18 O          66.4648   94.6170   13.9943 O.2     1  UNL1       -0.2702
     19 N          67.6401   92.4152   14.7159 N.am    1  UNL1       -0.3025
     20 H          67.6987   91.4327   14.6922 H       1  UNL1        0.1497
     21 C          68.6365   93.2071   15.5096 C.3     1  UNL1        0.0720
     22 C          69.1344   94.5249   16.0248 C.3     1  UNL1        0.0213
     23 C          69.8646   93.2608   16.3692 C.3     1  UNL1        0.0213
     24 N          59.6535   86.3338    8.8885 N.pl3   1  UNL1       -0.3180
     25 H          58.7173   86.2374    9.1775 H       1  UNL1        0.1482
     26 C          60.0220   86.1079    7.4521 C.3     1  UNL1        0.0881
     27 C          61.2678   85.3464    7.1083 C.3     1  UNL1        0.0196
     28 C          62.0301   84.4581    6.1703 C.3     1  UNL1        0.0017
     29 C          62.6631   84.9156    7.4509 C.3     1  UNL1        0.0017
     30 N          62.8807   85.0017   12.7369 N.pl3   1  UNL1       -0.3173
     31 H          63.1870   85.2587   13.6366 H       1  UNL1        0.1482
     32 C          62.9699   83.5712   12.2944 C.3     1  UNL1        0.0972
     33 C          63.5019   83.2395   10.9318 C.3     1  UNL1        0.0220
     34 C          63.5911   81.8090   10.4893 C.3     1  UNL1        0.0019
     35 C          63.1483   80.7103   11.4094 C.3     1  UNL1        0.0026
     36 C          62.6162   81.0421   12.7721 C.3     1  UNL1        0.0309
     37 C          62.5270   82.4725   13.2146 C.3     1  UNL1        0.1283
     38 O          61.9950   82.8043   14.5773 O.3     1  UNL1       -0.3828
     39 H          61.7558   81.9855   15.0391 H       1  UNL1        0.2104
@<TRIPOS>BOND
     1    10    11    1
     2    11    12   ar
     3    12    13   ar
     4    13     1    1
     5     1     2   ar
     6     2     3   ar
     7     3     4   ar
     8     4     5   ar
     9     5    24    1
    10    24    26    1
    11    26    27    1
    12    27    28    1
    13    28    29    1
    14     5     6   ar
    15     6     7   ar
    16     7    30    1
    17    32    30    1
    18    32    33    1
    19    33    34    1
    20    34    35    1
    21    35    36    1
    22    36    37    1
    23    37    38    1
    24     7     8   ar
    25     8     9   ar
    26    13    14   ar
    27    14    15   ar
    28    15    16   ar
    29    16    17    1
    30    17    18    2
    31    17    19   am
    32    19    21    1
    33    21    22    1
    34    22    23    1
    35    16    11   ar
    36    23    21    1
    37     9     1   ar
    38     9     4   ar
    39    29    27    1
    40    37    32    1
    41    24    25    1
    42    30    31    1
    43    38    39    1
    44    19    20    1
@<TRIPOS>MOLECULE
*****
 39 44 0 0 0
SMALL
GASTEIGER

@<TRIPOS>ATOM
      1 C          62.3870   89.8359   10.6590 C.ar    1  UNL1        0.0568
      2 C          61.4492   90.4159    9.6421 C.ar    1  UNL1        0.1236
      3 N          60.6377   89.2933    9.0666 N.ar    1  UNL1       -0.1610
      4 N          61.0740   88.0195    9.7278 N.ar    1  UNL1       -0.1987
      5 C          60.6266   86.5976    9.5608 C.ar    1  UNL1        0.1344
      6 C          61.2603   85.5110   10.3780 C.ar    1  UNL1        0.0682
      7 C          62.3414   85.8464   11.3622 C.ar    1  UNL1        0.1330
      8 N          62.7889   87.2684   11.5291 N.ar    1  UNL1       -0.2119
      9 C          62.1552   88.3549   10.7119 C.ar    1  UNL1        0.1679
     10 C          64.5580   90.9045   15.2574 C.3     1  UNL1        0.0312
     11 C          64.4676   91.1367   13.7782 C.ar    1  UNL1       -0.0175
     12 C          63.4726   90.3703   12.9581 C.ar    1  UNL1       -0.0040
     13 C          63.3821   90.6024   11.4790 C.ar    1  UNL1        0.0042
     14 C          64.2866   91.6011   10.8199 C.ar    1  UNL1        0.0003
     15 C          65.2817   92.3675   11.6400 C.ar    1  UNL1        0.0042
     16 C          65.3721   92.1354   13.1191 C.ar    1  UNL1        0.0494
     17 C          66.3672   92.9019   13.9391 C.2     1  UNL1        0.2455
     18 O          66.2298   94.3880   14.0884 O.2     1  UNL1       -0.2702
     19 N          67.4995   92.1821   14.6098 N.am    1  UNL1       -0.3025
     20 H          67.5896   91.2067   14.5118 H       1  UNL1        0.1497
     21 C          68.4946   92.9486   15.4298 C.3     1  UNL1        0.0720
     22 C          69.0837   94.2563   15.8688 C.3     1  UNL1        0.0213
     23 C          69.6289   92.9685   16.4110 C.3     1  UNL1        0.0213
     24 N          59.5454   86.2622    8.5766 N.pl3   1  UNL1       -0.3180
     25 H          58.6058   86.2320    8.8689 H       1  UNL1        0.1482
     26 C          59.8959   85.9729    7.1471 C.3     1  UNL1        0.0881
     27 C          61.1413   85.2029    6.8213 C.3     1  UNL1        0.0196
     28 C          61.8722   84.2216    5.9537 C.3     1  UNL1        0.0017
     29 C          62.5673   84.8504    7.1248 C.3     1  UNL1        0.0017
     30 N          62.9752   84.7599   12.1794 N.pl3   1  UNL1       -0.3173
     31 H          63.2299   83.9092   11.7543 H       1  UNL1        0.1482
     32 C          63.2207   84.9694   13.6442 C.3     1  UNL1        0.0972
     33 C          64.0570   86.1255   14.1067 C.3     1  UNL1        0.0220
     34 C          64.3025   86.3351   15.5715 C.3     1  UNL1        0.0019
     35 C          63.7117   85.3885   16.5740 C.3     1  UNL1        0.0026
     36 C          62.8754   84.2323   16.1115 C.3     1  UNL1        0.0309
     37 C          62.6299   84.0228   14.6466 C.3     1  UNL1        0.1283
     38 O          61.7936   82.8666   14.1842 O.3     1  UNL1       -0.3828
     39 H          61.4918   82.3579   14.9530 H       1  UNL1        0.2104
@<TRIPOS>BOND
     1    10    11    1
     2    11    12   ar
     3    12    13   ar
     4    13     1    1
     5     1     2   ar
     6     2     3   ar
     7     3     4   ar
     8     4     5   ar
     9     5    24    1
    10    24    26    1
    11    26    27    1
    12    27    28    1
    13    28    29    1
    14     5     6   ar
    15     6     7   ar
    16     7    30    1
    17    32    30    1
    18    32    33    1
    19    33    34    1
    20    34    35    1
    21    35    36    1
    22    36    37    1
    23    37    38    1
    24     7     8   ar
    25     8     9   ar
    26    13    14   ar
    27    14    15   ar
    28    15    16   ar
    29    16    17    1
    30    17    18    2
    31    17    19   am
    32    19    21    1
    33    21    22    1
    34    22    23    1
    35    16    11   ar
    36    23    21    1
    37     9     1   ar
    38     9     4   ar
    39    29    27    1
    40    37    32    1
    41    24    25    1
    42    30    31    1
    43    38    39    1
    44    19    20    1
@<TRIPOS>MOLECULE
*****
 39 44 0 0 0
SMALL
GASTEIGER

@<TRIPOS>ATOM
      1 C          61.9458   89.8412   11.5600 C.ar    1  UNL1        0.0568
      2 C          60.7934   90.5886   10.9572 C.ar    1  UNL1        0.1236
      3 N          59.9806   89.6173   10.1535 N.ar    1  UNL1       -0.1610
      4 N          60.6306   88.2696   10.2596 N.ar    1  UNL1       -0.1987
      5 C          60.2734   86.9344    9.6770 C.ar    1  UNL1        0.1344
      6 C          61.1309   85.7374    9.9636 C.ar    1  UNL1        0.0682
      7 C          62.3455   85.8757   10.8329 C.ar    1  UNL1        0.1330
      8 N          62.7026   87.2111   11.4155 N.ar    1  UNL1       -0.2119
      9 C          61.8452   88.4080   11.1288 C.ar    1  UNL1        0.1679
     10 C          65.8994   93.1406   12.2548 C.3     1  UNL1        0.0312
     11 C          64.9886   92.0743   12.7869 C.ar    1  UNL1       -0.0175
     12 C          63.9226   91.4909   11.9074 C.ar    1  UNL1       -0.0040
     13 C          63.0117   90.4245   12.4395 C.ar    1  UNL1        0.0042
     14 C          63.1667   89.9415   13.8511 C.ar    1  UNL1        0.0003
     15 C          64.2326   90.5249   14.7306 C.ar    1  UNL1        0.0042
     16 C          65.1435   91.5913   14.1985 C.ar    1  UNL1        0.0494
     17 C          66.2094   92.1746   15.0781 C.2     1  UNL1        0.2455
     18 O          65.8522   92.7169   16.4302 O.2     1  UNL1       -0.2702
     19 N          67.6324   92.2156   14.6055 N.am    1  UNL1       -0.3025
     20 H          67.8668   91.8596   13.7180 H       1  UNL1        0.1497
     21 C          68.6983   92.7989   15.4850 C.3     1  UNL1        0.0720
     22 C          69.3625   93.9932   16.1036 C.3     1  UNL1        0.0213
     23 C          69.8804   92.6149   16.3899 C.3     1  UNL1        0.0213
     24 N          59.0589   86.7960    8.8077 N.pl3   1  UNL1       -0.3180
     25 H          58.2074   86.4908    9.1965 H       1  UNL1        0.1482
     26 C          59.1415   87.1227    7.3460 C.3     1  UNL1        0.0881
     27 C          59.2090   88.5533    6.8999 C.3     1  UNL1        0.0196
     28 C          59.9523   89.8532    6.8129 C.3     1  UNL1        0.0017
     29 C          58.5824   89.7311    6.2143 C.3     1  UNL1        0.0017
     30 N          63.2029   84.6789   11.1195 N.pl3   1  UNL1       -0.3173
     31 H          64.0092   84.5104   10.5803 H       1  UNL1        0.1482
     32 C          62.8319   83.7385   12.2277 C.3     1  UNL1        0.0972
     33 C          62.4759   82.3152   11.9160 C.3     1  UNL1        0.0220
     34 C          62.1049   81.3749   13.0242 C.3     1  UNL1        0.0019
     35 C          62.0899   81.8579   14.4442 C.3     1  UNL1        0.0026
     36 C          62.4459   83.2813   14.7560 C.3     1  UNL1        0.0309
     37 C          62.8169   84.2216   13.6477 C.3     1  UNL1        0.1283
     38 O          63.1729   85.6450   13.9595 O.3     1  UNL1       -0.3828
     39 H          63.1138   85.7909   14.9167 H       1  UNL1        0.2104
@<TRIPOS>BOND
     1    10    11    1
     2    11    12   ar
     3    12    13   ar
     4    13     1    1
     5     1     2   ar
     6     2     3   ar
     7     3     4   ar
     8     4     5   ar
     9     5    24    1
    10    24    26    1
    11    26    27    1
    12    27    28    1
    13    28    29    1
    14     5     6   ar
    15     6     7   ar
    16     7    30    1
    17    32    30    1
    18    32    33    1
    19    33    34    1
    20    34    35    1
    21    35    36    1
    22    36    37    1
    23    37    38    1
    24     7     8   ar
    25     8     9   ar
    26    13    14   ar
    27    14    15   ar
    28    15    16   ar
    29    16    17    1
    30    17    18    2
    31    17    19   am
    32    19    21    1
    33    21    22    1
    34    22    23    1
    35    16    11   ar
    36    23    21    1
    37     9     1   ar
    38     9     4   ar
    39    29    27    1
    40    37    32    1
    41    24    25    1
    42    30    31    1
    43    38    39    1
    44    19    20    1
@<TRIPOS>MOLECULE
*****
 39 44 0 0 0
SMALL
GASTEIGER

@<TRIPOS>ATOM
      1 C          62.3276   85.7758   10.8809 C.ar    1  UNL1        0.0568
      2 C          62.5923   84.3060   10.7409 C.ar    1  UNL1        0.1236
      3 N          63.4114   83.8684   11.9188 N.ar    1  UNL1       -0.1610
      4 N          63.6530   85.0677   12.7868 N.ar    1  UNL1       -0.1987
      5 C          64.3964   85.2386   14.0783 C.ar    1  UNL1        0.1344
      6 C          64.4700   86.5884   14.7284 C.ar    1  UNL1        0.0682
      7 C          63.8002   87.7673   14.0869 C.ar    1  UNL1        0.1330
      8 N          63.0568   87.5964   12.7953 N.ar    1  UNL1       -0.2119
      9 C          62.9832   86.2466   12.1453 C.ar    1  UNL1        0.1679
     10 C          60.0739   90.3044    9.6924 C.3     1  UNL1        0.0312
     11 C          60.4180   88.8901    9.3301 C.ar    1  UNL1       -0.0175
     12 C          61.2008   88.0401   10.2866 C.ar    1  UNL1       -0.0040
     13 C          61.5448   86.6258    9.9244 C.ar    1  UNL1        0.0042
     14 C          61.1061   86.0613    8.6057 C.ar    1  UNL1        0.0003
     15 C          60.3233   86.9113    7.6492 C.ar    1  UNL1        0.0042
     16 C          59.9793   88.3257    8.0114 C.ar    1  UNL1        0.0494
     17 C          59.1965   89.1756    7.0549 C.2     1  UNL1        0.2455
     18 O          57.7238   88.9490    6.8828 O.2     1  UNL1       -0.2702
     19 N          59.8864   90.2521    6.2706 N.am    1  UNL1       -0.3025
     20 H          60.8530   90.4008    6.3837 H       1  UNL1        0.1497
     21 C          59.1036   91.1020    5.3141 C.3     1  UNL1        0.0720
     22 C          57.7867   91.6045    4.8012 C.3     1  UNL1        0.0213
     23 C          59.0648   92.0717    4.1704 C.3     1  UNL1        0.0213
     24 N          65.0662   84.0596   14.7198 N.pl3   1  UNL1       -0.3180
     25 H          66.0451   83.9651   14.6749 H       1  UNL1        0.1482
     26 C          64.2445   83.0248   15.4298 C.3     1  UNL1        0.0881
     27 C          63.3430   82.1166   14.6471 C.3     1  UNL1        0.0196
     28 C          61.9636   81.6942   14.2365 C.3     1  UNL1        0.0017
     29 C          63.1611   80.9659   13.7023 C.3     1  UNL1        0.0017
     30 N          63.8737   89.1171   14.7370 N.pl3   1  UNL1       -0.3173
     31 H          63.4658   89.2604   15.6215 H       1  UNL1        0.1482
     32 C          64.5687   90.2486   14.0394 C.3     1  UNL1        0.0972
     33 C          65.9249   90.6940   14.5004 C.3     1  UNL1        0.0220
     34 C          66.6199   91.8256   13.8028 C.3     1  UNL1        0.0019
     35 C          65.9588   92.5117   12.6443 C.3     1  UNL1        0.0026
     36 C          64.6027   92.0662   12.1834 C.3     1  UNL1        0.0309
     37 C          63.9077   90.9347   12.8809 C.3     1  UNL1        0.1283
     38 O          62.5515   90.4893   12.4199 O.3     1  UNL1       -0.3828
     39 H          62.2711   91.0331   11.6672 H       1  UNL1        0.2104
@<TRIPOS>BOND
     1    10    11    1
     2    11    12   ar
     3    12    13   ar
     4    13     1    1
     5     1     2   ar
     6     2     3   ar
     7     3     4   ar
     8     4     5   ar
     9     5    24    1
    10    24    26    1
    11    26    27    1
    12    27    28    1
    13    28    29    1
    14     5     6   ar
    15     6     7   ar
    16     7    30    1
    17    32    30    1
    18    32    33    1
    19    33    34    1
    20    34    35    1
    21    35    36    1
    22    36    37    1
    23    37    38    1
    24     7     8   ar
    25     8     9   ar
    26    13    14   ar
    27    14    15   ar
    28    15    16   ar
    29    16    17    1
    30    17    18    2
    31    17    19   am
    32    19    21    1
    33    21    22    1
    34    22    23    1
    35    16    11   ar
    36    23    21    1
    37     9     1   ar
    38     9     4   ar
    39    29    27    1
    40    37    32    1
    41    24    25    1
    42    30    31    1
    43    38    39    1
    44    19    20    1
@<TRIPOS>MOLECULE
*****
 39 44 0 0 0
SMALL
GASTEIGER

@<TRIPOS>ATOM
      1 C          64.0860   88.0234   14.3362 C.ar    1  UNL1        0.0568
      2 C          64.2055   87.4388   15.7124 C.ar    1  UNL1        0.1236
      3 N          63.6581   86.0429   15.6720 N.ar    1  UNL1       -0.1610
      4 N          63.2003   85.7647   14.2709 N.ar    1  UNL1       -0.1987
      5 C          62.5768   84.5550   13.6403 C.ar    1  UNL1        0.1344
      6 C          62.2178   84.5693   12.1839 C.ar    1  UNL1        0.0682
      7 C          62.4822   85.7934   11.3583 C.ar    1  UNL1        0.1330
      8 N          63.1057   87.0032   11.9890 N.ar    1  UNL1       -0.2119
      9 C          63.4648   86.9888   13.4453 C.ar    1  UNL1        0.1679
     10 C          67.2164   92.1293   14.9215 C.3     1  UNL1        0.0312
     11 C          66.0780   91.4539   14.2159 C.ar    1  UNL1       -0.0175
     12 C          65.6512   90.0764   14.6288 C.ar    1  UNL1       -0.0040
     13 C          64.5128   89.4009   13.9233 C.ar    1  UNL1        0.0042
     14 C          63.8012   90.1029   12.8049 C.ar    1  UNL1        0.0003
     15 C          64.2280   91.4803   12.3920 C.ar    1  UNL1        0.0042
     16 C          65.3664   92.1558   13.0975 C.ar    1  UNL1        0.0494
     17 C          65.7932   93.5333   12.6846 C.2     1  UNL1        0.2455
     18 O          66.1606   94.5483   13.7261 O.2     1  UNL1       -0.2702
     19 N          65.8526   93.8957   11.2303 N.am    1  UNL1       -0.3025
     20 H          65.6114   93.2295   10.5467 H       1  UNL1        0.1497
     21 C          66.2794   95.2732   10.8174 C.3     1  UNL1        0.0720
     22 C          67.0279   96.1754    9.8817 C.3     1  UNL1        0.0213
     23 C          66.2699   96.7568   11.0380 C.3     1  UNL1        0.0213
     24 N          62.3124   83.3309   14.4659 N.pl3   1  UNL1       -0.3180
     25 H          61.5552   83.3155   15.0949 H       1  UNL1        0.1482
     26 C          63.2017   82.1302   14.3331 C.3     1  UNL1        0.0881
     27 C          62.8849   81.0707   13.3195 C.3     1  UNL1        0.0196
     28 C          62.8307   80.6134   11.8920 C.3     1  UNL1        0.0017
     29 C          62.3904   79.6931   12.9916 C.3     1  UNL1        0.0017
     30 N          62.1232   85.8078    9.9020 N.pl3   1  UNL1       -0.3173
     31 H          62.3980   85.0629    9.3199 H       1  UNL1        0.1482
     32 C          61.3454   86.9571    9.3326 C.3     1  UNL1        0.0972
     33 C          61.5542   88.3425    9.8680 C.3     1  UNL1        0.0220
     34 C          60.7765   89.4918    9.2986 C.3     1  UNL1        0.0019
     35 C          59.7899   89.2556    8.1937 C.3     1  UNL1        0.0026
     36 C          59.5811   87.8701    7.6582 C.3     1  UNL1        0.0309
     37 C          60.3589   86.7209    8.2277 C.3     1  UNL1        0.1283
     38 O          60.1500   85.3353    7.6921 O.3     1  UNL1       -0.3828
     39 H          59.4840   85.3581    6.9873 H       1  UNL1        0.2104
@<TRIPOS>BOND
     1    10    11    1
     2    11    12   ar
     3    12    13   ar
     4    13     1    1
     5     1     2   ar
     6     2     3   ar
     7     3     4   ar
     8     4     5   ar
     9     5    24    1
    10    24    26    1
    11    26    27    1
    12    27    28    1
    13    28    29    1
    14     5     6   ar
    15     6     7   ar
    16     7    30    1
    17    32    30    1
    18    32    33    1
    19    33    34    1
    20    34    35    1
    21    35    36    1
    22    36    37    1
    23    37    38    1
    24     7     8   ar
    25     8     9   ar
    26    13    14   ar
    27    14    15   ar
    28    15    16   ar
    29    16    17    1
    30    17    18    2
    31    17    19   am
    32    19    21    1
    33    21    22    1
    34    22    23    1
    35    16    11   ar
    36    23    21    1
    37     9     1   ar
    38     9     4   ar
    39    29    27    1
    40    37    32    1
    41    24    25    1
    42    30    31    1
    43    38    39    1
    44    19    20    1
@<TRIPOS>MOLECULE
*****
 39 44 0 0 0
SMALL
GASTEIGER

@<TRIPOS>ATOM
      1 C          59.7413   89.1298    7.2717 C.ar    1  UNL1        0.0568
      2 C          58.9953   87.8308    7.3511 C.ar    1  UNL1        0.1236
      3 N          59.3505   87.1711    8.6505 N.ar    1  UNL1       -0.1610
      4 N          60.3160   88.0622    9.3742 N.ar    1  UNL1       -0.1987
      5 C          61.0064   87.9278   10.6990 C.ar    1  UNL1        0.1344
      6 C          61.9384   89.0039   11.1717 C.ar    1  UNL1        0.0682
      7 C          62.1799   90.2145   10.3196 C.ar    1  UNL1        0.1330
      8 N          61.4894   90.3489    8.9947 N.ar    1  UNL1       -0.2119
      9 C          60.5575   89.2728    8.5220 C.ar    1  UNL1        0.1679
     10 C          62.1139   91.7863    3.4884 C.3     1  UNL1        0.0312
     11 C          60.8679   91.4414    4.2489 C.ar    1  UNL1       -0.0175
     12 C          60.9275   90.4581    5.3801 C.ar    1  UNL1       -0.0040
     13 C          59.6815   90.1131    6.1406 C.ar    1  UNL1        0.0042
     14 C          58.3757   90.7515    5.7699 C.ar    1  UNL1        0.0003
     15 C          58.3161   91.7348    4.6387 C.ar    1  UNL1        0.0042
     16 C          59.5621   92.0798    3.8782 C.ar    1  UNL1        0.0494
     17 C          59.5023   93.0631    2.7471 C.2     1  UNL1        0.2455
     18 O          59.9254   94.4853    2.9666 O.2     1  UNL1       -0.2702
     19 N          59.0195   92.6242    1.3964 N.am    1  UNL1       -0.3025
     20 H          58.7419   91.6907    1.2524 H       1  UNL1        0.1497
     21 C          58.9598   93.6075    0.2653 C.3     1  UNL1        0.0720
     22 C          58.1805   94.5753   -0.5749 C.3     1  UNL1        0.0213
     23 C          59.6357   94.3428   -0.8538 C.3     1  UNL1        0.0213
     24 N          60.7649   86.7172   11.5512 N.pl3   1  UNL1       -0.3180
     25 H          59.9681   86.6720   12.1277 H       1  UNL1        0.1482
     26 C          61.7374   85.5754   11.5250 C.3     1  UNL1        0.0881
     27 C          62.4721   85.2449   10.2597 C.3     1  UNL1        0.0196
     28 C          62.7619   85.5250    8.8149 C.3     1  UNL1        0.0017
     29 C          63.4547   84.3924    9.5130 C.3     1  UNL1        0.0017
     30 N          63.1118   91.2906   10.7922 N.pl3   1  UNL1       -0.3173
     31 H          63.2060   92.1226   10.2744 H       1  UNL1        0.1482
     32 C          63.9003   91.0991   12.0538 C.3     1  UNL1        0.0972
     33 C          63.5640   89.9720   12.9846 C.3     1  UNL1        0.0220
     34 C          64.3525   89.7805   14.2462 C.3     1  UNL1        0.0019
     35 C          65.4773   90.7161   14.5770 C.3     1  UNL1        0.0026
     36 C          65.8136   91.8432   13.6462 C.3     1  UNL1        0.0309
     37 C          65.0251   92.0347   12.3846 C.3     1  UNL1        0.1283
     38 O          65.3615   93.1619   11.4537 O.3     1  UNL1       -0.3828
     39 H          66.1075   93.6667   11.8136 H       1  UNL1        0.2104
@<TRIPOS>BOND
     1    10    11    1
     2    11    12   ar
     3    12    13   ar
     4    13     1    1
     5     1     2   ar
     6     2     3   ar
     7     3     4   ar
     8     4     5   ar
     9     5    24    1
    10    24    26    1
    11    26    27    1
    12    27    28    1
    13    28    29    1
    14     5     6   ar
    15     6     7   ar
    16     7    30    1
    17    32    30    1
    18    32    33    1
    19    33    34    1
    20    34    35    1
    21    35    36    1
    22    36    37    1
    23    37    38    1
    24     7     8   ar
    25     8     9   ar
    26    13    14   ar
    27    14    15   ar
    28    15    16   ar
    29    16    17    1
    30    17    18    2
    31    17    19   am
    32    19    21    1
    33    21    22    1
    34    22    23    1
    35    16    11   ar
    36    23    21    1
    37     9     1   ar
    38     9     4   ar
    39    29    27    1
    40    37    32    1
    41    24    25    1
    42    30    31    1
    43    38    39    1
    44    19    20    1
@<TRIPOS>MOLECULE
*****
 39 44 0 0 0
SMALL
GASTEIGER

@<TRIPOS>ATOM
      1 C          62.6608   84.9246   10.6869 C.ar    1  UNL1        0.0568
      2 C          63.0037   83.6017   10.0685 C.ar    1  UNL1        0.1236
      3 N          63.6972   82.7706   11.1069 N.ar    1  UNL1       -0.1610
      4 N          63.7828   83.5797   12.3671 N.ar    1  UNL1       -0.1987
      5 C          64.3613   83.2763   13.7173 C.ar    1  UNL1        0.1344
      6 C          64.2993   84.3042   14.8081 C.ar    1  UNL1        0.0682
      7 C          63.6588   85.6355   14.5485 C.ar    1  UNL1        0.1330
      8 N          63.0803   85.9389   13.1981 N.ar    1  UNL1       -0.2119
      9 C          63.1423   84.9110   12.1075 C.ar    1  UNL1        0.1679
     10 C          58.9546   86.6508    7.4799 C.3     1  UNL1        0.0312
     11 C          60.1064   86.9246    8.4010 C.ar    1  UNL1       -0.0175
     12 C          60.8077   85.7878    9.0834 C.ar    1  UNL1       -0.0040
     13 C          61.9595   86.0615   10.0046 C.ar    1  UNL1        0.0042
     14 C          62.4100   87.4722   10.2433 C.ar    1  UNL1        0.0003
     15 C          61.7086   88.6091    9.5609 C.ar    1  UNL1        0.0042
     16 C          60.5568   88.3353    8.6398 C.ar    1  UNL1        0.0494
     17 C          59.8555   89.4723    7.9574 C.2     1  UNL1        0.2455
     18 O          59.3409   90.6279    8.7633 O.2     1  UNL1       -0.2702
     19 N          59.6689   89.4534    6.4692 N.am    1  UNL1       -0.3025
     20 H          60.0066   88.6949    5.9403 H       1  UNL1        0.1497
     21 C          58.9676   90.5904    5.7869 C.3     1  UNL1        0.0720
     22 C          57.7019   91.2310    5.2994 C.3     1  UNL1        0.0213
     23 C          59.0186   91.9189    5.0924 C.3     1  UNL1        0.0213
     24 N          65.0018   81.9450   13.9769 N.pl3   1  UNL1       -0.3180
     25 H          65.9421   81.8989   14.2652 H       1  UNL1        0.1482
     26 C          64.2098   80.6839   13.7972 C.3     1  UNL1        0.0881
     27 C          62.7137   80.7167   13.9009 C.3     1  UNL1        0.0196
     28 C          61.3877   80.0262   13.7790 C.3     1  UNL1        0.0017
     29 C          61.4485   81.4640   14.2022 C.3     1  UNL1        0.0017
     30 N          63.5968   86.6634   15.6391 N.pl3   1  UNL1       -0.3173
     31 H          63.4578   86.3829   16.5725 H       1  UNL1        0.1482
     32 C          63.7467   88.1186   15.3077 C.3     1  UNL1        0.0972
     33 C          64.1669   88.5344   13.9291 C.3     1  UNL1        0.0220
     34 C          64.3167   89.9897   13.5977 C.3     1  UNL1        0.0019
     35 C          64.0464   91.0291   14.6448 C.3     1  UNL1        0.0026
     36 C          63.6262   90.6132   16.0234 C.3     1  UNL1        0.0309
     37 C          63.4764   89.1580   16.3548 C.3     1  UNL1        0.1283
     38 O          63.0562   88.7422   17.7335 O.3     1  UNL1       -0.3828
     39 H          62.9232   89.5307   18.2826 H       1  UNL1        0.2104
@<TRIPOS>BOND
     1    10    11    1
     2    11    12   ar
     3    12    13   ar
     4    13     1    1
     5     1     2   ar
     6     2     3   ar
     7     3     4   ar
     8     4     5   ar
     9     5    24    1
    10    24    26    1
    11    26    27    1
    12    27    28    1
    13    28    29    1
    14     5     6   ar
    15     6     7   ar
    16     7    30    1
    17    32    30    1
    18    32    33    1
    19    33    34    1
    20    34    35    1
    21    35    36    1
    22    36    37    1
    23    37    38    1
    24     7     8   ar
    25     8     9   ar
    26    13    14   ar
    27    14    15   ar
    28    15    16   ar
    29    16    17    1
    30    17    18    2
    31    17    19   am
    32    19    21    1
    33    21    22    1
    34    22    23    1
    35    16    11   ar
    36    23    21    1
    37     9     1   ar
    38     9     4   ar
    39    29    27    1
    40    37    32    1
    41    24    25    1
    42    30    31    1
    43    38    39    1
    44    19    20    1
