@<TRIPOS>MOLECULE
*****
 43 49 0 0 0
SMALL
GASTEIGER

@<TRIPOS>ATOM
      1 C          58.7029   86.7723    8.4687 C.3     1  UNL1        0.0312
      2 C          59.5821   87.9655    8.2380 C.2     1  UNL1        0.0136
      3 C          59.3916   88.8122    7.0146 C.2     1  UNL1        0.0107
      4 C          60.2707   90.0054    6.7839 C.2     1  UNL1        0.0509
      5 C          61.3406   90.3520    7.7766 C.2     1  UNL1        0.0613
      6 C          61.5311   89.5053    9.0000 C.2     1  UNL1        0.2246
      7 N          62.4949   89.5994   10.1456 N.2     1  UNL1       -0.0378
      8 C          62.2112   88.4643   11.0843 C.2     1  UNL1        0.3605
      9 N          61.0722   87.6687   10.5189 N.2     1  UNL1       -0.0547
     10 C          60.6519   88.3120    9.2307 C.3     1  UNL1        0.2976
     11 C          62.9389   88.1755   12.3638 C.3     1  UNL1        0.2246
     12 C          63.4592   89.3053   13.2021 C.2     1  UNL1        0.0436
     13 C          64.1869   89.0164   14.4817 C.2     1  UNL1        0.0288
     14 C          64.3942   87.5978   14.9228 C.2     1  UNL1        0.0896
     15 N          63.8738   86.4680   14.0845 N.am    1  UNL1       -0.1770
     16 C          63.1462   86.7569   12.8049 C.2     1  UNL1        0.2627
     17 O          62.6259   85.6271   11.9666 O.2     1  UNL1       -0.2719
     18 N          63.2520   90.7239   12.7611 N.pl3   1  UNL1       -0.3329
     19 H          62.4822   91.2367   13.0983 H       1  UNL1        0.1466
     20 C          64.2174   91.3611   11.8062 C.3     1  UNL1        0.1211
     21 C          65.2232   92.3544   12.3079 C.3     1  UNL1        0.1522
     22 O          65.3575   92.6073   13.7803 O.3     1  UNL1       -0.3783
     23 H          64.7256   92.0516   14.2628 H       1  UNL1        0.2109
     24 C          66.0946   93.0949   11.3372 C.ar    1  UNL1        0.0067
     25 C          66.0186   94.5904   11.2507 C.ar    1  UNL1       -0.0018
     26 C          66.8901   95.3309   10.2800 C.ar    1  UNL1        0.0006
     27 C          67.8376   94.5757    9.3957 C.ar    1  UNL1        0.0114
     28 C          67.9136   93.0802    9.4822 C.ar    1  UNL1        0.0574
     29 CL         68.8611   92.3251    8.5978 Cl      1  UNL1       -0.0823
     30 C          67.0421   92.3398   10.4529 C.ar    1  UNL1        0.0095
     31 N          60.0802   90.8521    5.5604 N.pl3   1  UNL1       -0.3073
     32 C          58.7214   91.3927    5.2266 C.3     1  UNL1        0.0922
     33 C          58.5308   92.2394    4.0031 C.3     1  UNL1        0.0374
     34 C          59.6990   92.5455    3.1135 C.3     1  UNL1        0.0610
     35 C          61.0579   92.0049    3.4473 C.3     1  UNL1        0.0374
     36 C          61.2484   91.1583    4.6707 C.3     1  UNL1        0.0922
     37 N          59.5086   93.3922    1.8901 N.3     1  UNL1       -0.2708
     38 C          58.8736   92.9529    0.6041 C.3     1  UNL1        0.1020
     39 C          58.8922   94.1160   -0.3430 C.3     1  UNL1        0.1326
     40 C          59.2731   93.6687    1.0371 C.3     1  UNL1        0.0495
     41 C          59.9196   94.8267    1.7379 C.3     1  UNL1        0.0898
     42 C          59.9382   95.9898    0.7908 C.3     1  UNL1        0.1580
     43 O          59.3032   95.5505   -0.4952 O.3     1  UNL1       -0.3533
@<TRIPOS>BOND
     1     1     2    1
     2     2     3    2
     3     3     4    1
     4     4    31    1
     5    31    32    1
     6    32    33    1
     7    33    34    1
     8    34    37    1
     9    37    38    1
    10    39    38    1
    11    39    40    1
    12    40    41    1
    13    41    42    1
    14    42    43    1
    15    34    35    1
    16    35    36    1
    17     4     5    2
    18     5     6    1
    19     6     7    2
    20     7     8    1
    21     8    11    1
    22    11    12    1
    23    12    18    1
    24    18    20    1
    25    20    21    1
    26    21    22    1
    27    21    24    1
    28    24    25   ar
    29    25    26   ar
    30    26    27   ar
    31    27    28   ar
    32    28    29    1
    33    28    30   ar
    34    12    13    2
    35    13    14    1
    36    14    15    2
    37    15    16    1
    38    16    17    2
    39     8     9    2
    40     9    10    1
    41    10     2    1
    42    36    31    1
    43    10     6    1
    44    41    37    1
    45    16    11    1
    46    43    39    1
    47    30    24   ar
    48    18    19    1
    49    22    23    1
@<TRIPOS>MOLECULE
*****
 43 49 0 0 0
SMALL
GASTEIGER

@<TRIPOS>ATOM
      1 C          56.3097   91.2218    5.2306 C.3     1  UNL1        0.0312
      2 C          57.7723   91.2636    4.9004 C.2     1  UNL1        0.0136
      3 C          58.2535   92.0638    3.7265 C.2     1  UNL1        0.0107
      4 C          59.7160   92.1056    3.3962 C.2     1  UNL1        0.0509
      5 C          60.6975   91.3473    4.2400 C.2     1  UNL1        0.0613
      6 C          60.2163   90.5472    5.4139 C.2     1  UNL1        0.2246
      7 N          60.9429   89.7044    6.4198 N.2     1  UNL1       -0.0378
      8 C          59.9294   89.1417    7.3716 C.2     1  UNL1        0.3605
      9 N          58.5763   89.6367    6.9541 N.2     1  UNL1       -0.0547
     10 C          58.7537   90.5054    5.7441 C.3     1  UNL1        0.2976
     11 C          60.2181   88.2419    8.5366 C.3     1  UNL1        0.2246
     12 C          60.5458   88.8314    9.8764 C.2     1  UNL1        0.0436
     13 C          60.8345   87.9315   11.0413 C.2     1  UNL1        0.0288
     14 C          60.7956   86.4423   10.8664 C.2     1  UNL1        0.0896
     15 N          60.4680   85.8528    9.5266 N.am    1  UNL1       -0.1770
     16 C          60.1792   86.7527    8.3617 C.2     1  UNL1        0.2627
     17 O          59.8516   86.1632    7.0218 O.2     1  UNL1       -0.2719
     18 N          60.5847   90.3206   10.0514 N.pl3   1  UNL1       -0.3329
     19 H          60.1013   90.9030    9.4218 H       1  UNL1        0.1466
     20 C          61.3600   90.9226   11.1856 C.3     1  UNL1        0.1211
     21 C          62.8095   91.2640   11.0054 C.3     1  UNL1        0.1522
     22 O          63.3042   91.7583    9.6784 O.3     1  UNL1       -0.3783
     23 H          62.5646   91.7985    9.0521 H       1  UNL1        0.2109
     24 C          63.7642   91.1112   12.1522 C.ar    1  UNL1        0.0067
     25 C          63.5918   89.9838   13.1265 C.ar    1  UNL1       -0.0018
     26 C          64.5465   89.8310   14.2733 C.ar    1  UNL1        0.0006
     27 C          65.6737   90.8055   14.4458 C.ar    1  UNL1        0.0114
     28 C          65.8461   91.9328   13.4715 C.ar    1  UNL1        0.0574
     29 CL         66.9733   92.9073   13.6440 Cl      1  UNL1       -0.0823
     30 C          64.8914   92.0857   12.3247 C.ar    1  UNL1        0.0095
     31 N          60.1973   92.9058    2.2222 N.pl3   1  UNL1       -0.3073
     32 C          60.0422   92.3650    0.8317 C.3     1  UNL1        0.0922
     33 C          60.5234   93.1651   -0.3422 C.3     1  UNL1        0.0374
     34 C          61.1597   94.5061   -0.1257 C.3     1  UNL1        0.0610
     35 C          61.3148   95.0469    1.2648 C.3     1  UNL1        0.0374
     36 C          60.8336   94.2468    2.4387 C.3     1  UNL1        0.0922
     37 N          61.6410   95.3063   -1.2996 N.3     1  UNL1       -0.2708
     38 C          60.7941   96.1770   -2.1798 C.3     1  UNL1        0.1020
     39 C          61.6833   96.7851   -3.2236 C.3     1  UNL1        0.1326
     40 C          61.6572   95.8712   -2.0345 C.3     1  UNL1        0.0495
     41 C          63.0535   95.3763   -1.7994 C.3     1  UNL1        0.0898
     42 C          63.9426   95.9844   -2.8433 C.3     1  UNL1        0.1580
     43 O          63.0958   96.8551   -3.7234 O.3     1  UNL1       -0.3533
@<TRIPOS>BOND
     1     1     2    1
     2     2     3    2
     3     3     4    1
     4     4    31    1
     5    31    32    1
     6    32    33    1
     7    33    34    1
     8    34    37    1
     9    37    38    1
    10    39    38    1
    11    39    40    1
    12    40    41    1
    13    41    42    1
    14    42    43    1
    15    34    35    1
    16    35    36    1
    17     4     5    2
    18     5     6    1
    19     6     7    2
    20     7     8    1
    21     8    11    1
    22    11    12    1
    23    12    18    1
    24    18    20    1
    25    20    21    1
    26    21    22    1
    27    21    24    1
    28    24    25   ar
    29    25    26   ar
    30    26    27   ar
    31    27    28   ar
    32    28    29    1
    33    28    30   ar
    34    12    13    2
    35    13    14    1
    36    14    15    2
    37    15    16    1
    38    16    17    2
    39     8     9    2
    40     9    10    1
    41    10     2    1
    42    36    31    1
    43    10     6    1
    44    41    37    1
    45    16    11    1
    46    43    39    1
    47    30    24   ar
    48    18    19    1
    49    22    23    1
@<TRIPOS>MOLECULE
*****
 43 49 0 0 0
SMALL
GASTEIGER

@<TRIPOS>ATOM
      1 C          58.4135   86.5303    8.2778 C.3     1  UNL1        0.0312
      2 C          59.3839   87.6625    8.1140 C.2     1  UNL1        0.0136
      3 C          59.2451   88.6078    6.9577 C.2     1  UNL1        0.0107
      4 C          60.2153   89.7399    6.7939 C.2     1  UNL1        0.0509
      5 C          61.3245   89.9267    7.7864 C.2     1  UNL1        0.0613
      6 C          61.4633   88.9813    8.9426 C.2     1  UNL1        0.2246
      7 N          62.4483   88.9146   10.0719 N.2     1  UNL1       -0.0378
      8 C          62.0868   87.7413   10.9336 C.2     1  UNL1        0.3605
      9 N          60.8784   87.0828   10.3369 N.2     1  UNL1       -0.0547
     10 C          60.4930   87.8492    9.1064 C.3     1  UNL1        0.2976
     11 C          62.8073   87.3033   12.1742 C.3     1  UNL1        0.2246
     12 C          63.5360   88.3106   13.0135 C.2     1  UNL1        0.0436
     13 C          64.2564   87.8725   14.2541 C.2     1  UNL1        0.0288
     14 C          64.2483   86.4272   14.6554 C.2     1  UNL1        0.0896
     15 N          63.5196   85.4199   13.8161 N.am    1  UNL1       -0.1770
     16 C          62.7991   85.8580   12.5755 C.2     1  UNL1        0.2627
     17 O          62.0705   84.8507   11.7362 O.2     1  UNL1       -0.2719
     18 N          63.5442   89.7559   12.6123 N.pl3   1  UNL1       -0.3329
     19 H          63.8034   90.0113   11.6975 H       1  UNL1        0.1466
     20 C          63.1575   90.8120   13.6047 C.3     1  UNL1        0.1211
     21 C          63.9035   90.9326   14.9005 C.3     1  UNL1        0.1522
     22 O          63.2725   90.4583   16.1760 O.3     1  UNL1       -0.3783
     23 H          62.3893   90.1042   15.9877 H       1  UNL1        0.2109
     24 C          65.2803   91.5274   14.9207 C.ar    1  UNL1        0.0067
     25 C          65.7289   92.3403   16.0988 C.ar    1  UNL1       -0.0018
     26 C          67.1058   92.9352   16.1191 C.ar    1  UNL1        0.0006
     27 C          68.0341   92.7172   14.9612 C.ar    1  UNL1        0.0114
     28 C          67.5855   91.9043   13.7831 C.ar    1  UNL1        0.0574
     29 CL         68.5138   91.6863   12.6252 Cl      1  UNL1       -0.0823
     30 C          66.2086   91.3094   13.7628 C.ar    1  UNL1        0.0095
     31 N          60.0765   90.6853    5.6375 N.pl3   1  UNL1       -0.3073
     32 C          58.7325   91.2541    5.2910 C.3     1  UNL1        0.0922
     33 C          58.5936   92.1995    4.1347 C.3     1  UNL1        0.0374
     34 C          59.7988   92.5760    3.3250 C.3     1  UNL1        0.0610
     35 C          61.1429   92.0073    3.6715 C.3     1  UNL1        0.0374
     36 C          61.2817   91.0619    4.8278 C.3     1  UNL1        0.0922
     37 N          59.6601   93.5214    2.1687 N.3     1  UNL1       -0.2708
     38 C          59.0561   93.1991    0.8340 C.3     1  UNL1        0.1020
     39 C          59.1237   94.4335   -0.0155 C.3     1  UNL1        0.1326
     40 C          59.4552   93.8698    1.3344 C.3     1  UNL1        0.0495
     41 C          60.1009   94.9549    2.1441 C.3     1  UNL1        0.0898
     42 C          60.1685   96.1893    1.2945 C.3     1  UNL1        0.1580
     43 O          59.5646   95.8671   -0.0402 O.3     1  UNL1       -0.3533
@<TRIPOS>BOND
     1     1     2    1
     2     2     3    2
     3     3     4    1
     4     4    31    1
     5    31    32    1
     6    32    33    1
     7    33    34    1
     8    34    37    1
     9    37    38    1
    10    39    38    1
    11    39    40    1
    12    40    41    1
    13    41    42    1
    14    42    43    1
    15    34    35    1
    16    35    36    1
    17     4     5    2
    18     5     6    1
    19     6     7    2
    20     7     8    1
    21     8    11    1
    22    11    12    1
    23    12    18    1
    24    18    20    1
    25    20    21    1
    26    21    22    1
    27    21    24    1
    28    24    25   ar
    29    25    26   ar
    30    26    27   ar
    31    27    28   ar
    32    28    29    1
    33    28    30   ar
    34    12    13    2
    35    13    14    1
    36    14    15    2
    37    15    16    1
    38    16    17    2
    39     8     9    2
    40     9    10    1
    41    10     2    1
    42    36    31    1
    43    10     6    1
    44    41    37    1
    45    16    11    1
    46    43    39    1
    47    30    24   ar
    48    18    19    1
    49    22    23    1
@<TRIPOS>MOLECULE
*****
 43 49 0 0 0
SMALL
GASTEIGER

@<TRIPOS>ATOM
      1 C          56.3086   91.1440    5.1431 C.3     1  UNL1        0.0312
      2 C          57.7878   90.9657    5.3163 C.2     1  UNL1        0.0136
      3 C          58.3123   89.9893    6.3270 C.2     1  UNL1        0.0107
      4 C          59.7915   89.8110    6.5001 C.2     1  UNL1        0.0509
      5 C          60.7464   90.6090    5.6625 C.2     1  UNL1        0.0613
      6 C          60.2219   91.5853    4.6517 C.2     1  UNL1        0.2246
      7 N          60.9153   92.5045    3.6903 N.2     1  UNL1       -0.0378
      8 C          59.8645   93.2509    2.9230 C.2     1  UNL1        0.3605
      9 N          58.5217   92.7931    3.4102 N.2     1  UNL1       -0.0547
     10 C          58.7426   91.7637    4.4786 C.3     1  UNL1        0.2976
     11 C          60.1129   94.2753    1.8558 C.3     1  UNL1        0.2246
     12 C          60.4771   93.8391    0.4676 C.2     1  UNL1        0.0436
     13 C          60.7255   94.8636   -0.5995 C.2     1  UNL1        0.0288
     14 C          60.6097   96.3243   -0.2785 C.2     1  UNL1        0.0896
     15 N          60.2455   96.7605    1.1097 N.am    1  UNL1       -0.1770
     16 C          59.9971   95.7360    2.1768 C.2     1  UNL1        0.2627
     17 O          59.6329   96.1722    3.5650 O.2     1  UNL1       -0.2719
     18 N          60.5930   92.3785    0.1465 N.pl3   1  UNL1       -0.3329
     19 H          59.7953   91.8695   -0.1254 H       1  UNL1        0.1466
     20 C          61.9240   91.6933    0.2397 C.3     1  UNL1        0.1211
     21 C          62.9614   92.1972    1.1988 C.3     1  UNL1        0.1522
     22 O          63.2464   91.4394    2.4616 O.3     1  UNL1       -0.3783
     23 H          62.6778   90.6546    2.5031 H       1  UNL1        0.2109
     24 C          63.7138   93.4588    0.8952 C.ar    1  UNL1        0.0067
     25 C          64.1069   93.7762   -0.5172 C.ar    1  UNL1       -0.0018
     26 C          64.8592   95.0378   -0.8208 C.ar    1  UNL1        0.0006
     27 C          65.2186   95.9821    0.2879 C.ar    1  UNL1        0.0114
     28 C          64.8255   95.6647    1.7002 C.ar    1  UNL1        0.0574
     29 CL         65.1849   96.6090    2.8089 Cl      1  UNL1       -0.0823
     30 C          64.0732   94.4031    2.0039 C.ar    1  UNL1        0.0095
     31 N          60.3161   88.8346    7.5109 N.pl3   1  UNL1       -0.3073
     32 C          61.0004   89.3322    8.7495 C.3     1  UNL1        0.0922
     33 C          61.5249   88.3559    9.7602 C.3     1  UNL1        0.0374
     34 C          61.3651   86.8819    9.5324 C.3     1  UNL1        0.0610
     35 C          60.6807   86.3843    8.2939 C.3     1  UNL1        0.0374
     36 C          60.1562   87.3606    7.2831 C.3     1  UNL1        0.0922
     37 N          61.8895   85.9055   10.5431 N.3     1  UNL1       -0.2708
     38 C          61.6738   85.9703   12.0261 C.3     1  UNL1        0.1020
     39 C          62.3727   84.7977   12.6478 C.3     1  UNL1        0.1326
     40 C          62.0741   85.4823   11.3471 C.3     1  UNL1        0.0495
     41 C          62.7218   84.6929   10.2483 C.3     1  UNL1        0.0898
     42 C          63.4208   83.5204   10.8701 C.3     1  UNL1        0.1580
     43 O          63.2050   83.5852   12.3531 O.3     1  UNL1       -0.3533
@<TRIPOS>BOND
     1     1     2    1
     2     2     3    2
     3     3     4    1
     4     4    31    1
     5    31    32    1
     6    32    33    1
     7    33    34    1
     8    34    37    1
     9    37    38    1
    10    39    38    1
    11    39    40    1
    12    40    41    1
    13    41    42    1
    14    42    43    1
    15    34    35    1
    16    35    36    1
    17     4     5    2
    18     5     6    1
    19     6     7    2
    20     7     8    1
    21     8    11    1
    22    11    12    1
    23    12    18    1
    24    18    20    1
    25    20    21    1
    26    21    22    1
    27    21    24    1
    28    24    25   ar
    29    25    26   ar
    30    26    27   ar
    31    27    28   ar
    32    28    29    1
    33    28    30   ar
    34    12    13    2
    35    13    14    1
    36    14    15    2
    37    15    16    1
    38    16    17    2
    39     8     9    2
    40     9    10    1
    41    10     2    1
    42    36    31    1
    43    10     6    1
    44    41    37    1
    45    16    11    1
    46    43    39    1
    47    30    24   ar
    48    18    19    1
    49    22    23    1
@<TRIPOS>MOLECULE
*****
 43 49 0 0 0
SMALL
GASTEIGER

@<TRIPOS>ATOM
      1 C          56.4227   91.2554    4.9897 C.3     1  UNL1        0.0312
      2 C          57.8950   91.0509    5.1907 C.2     1  UNL1        0.0136
      3 C          58.3830   90.0689    6.2142 C.2     1  UNL1        0.0107
      4 C          59.8552   89.8645    6.4152 C.2     1  UNL1        0.0509
      5 C          60.8397   90.6421    5.5928 C.2     1  UNL1        0.0613
      6 C          60.3517   91.6241    4.5694 C.2     1  UNL1        0.2246
      7 N          61.0793   92.5271    3.6180 N.2     1  UNL1       -0.0378
      8 C          60.0566   93.2897    2.8289 C.2     1  UNL1        0.3605
      9 N          58.6970   92.8579    3.2926 N.2     1  UNL1       -0.0547
     10 C          58.8794   91.8285    4.3683 C.3     1  UNL1        0.2976
     11 C          60.3432   94.3056    1.7632 C.3     1  UNL1        0.2246
     12 C          60.7881   93.8595    0.4019 C.2     1  UNL1        0.0436
     13 C          61.0746   94.8755   -0.6637 C.2     1  UNL1        0.0288
     14 C          60.9163   96.3376   -0.3682 C.2     1  UNL1        0.0896
     15 N          60.4714   96.7837    0.9930 N.am    1  UNL1       -0.1770
     16 C          60.1848   95.7676    2.0587 C.2     1  UNL1        0.2627
     17 O          59.7399   96.2137    3.4200 O.2     1  UNL1       -0.2719
     18 N          60.9464   92.3975    0.1063 N.pl3   1  UNL1       -0.3329
     19 H          61.7936   91.9418    0.3160 H       1  UNL1        0.1466
     20 C          59.8142   91.6297   -0.5089 C.3     1  UNL1        0.1211
     21 C          58.5583   92.3422   -0.9151 C.3     1  UNL1        0.1522
     22 O          57.5525   92.7407    0.1239 O.3     1  UNL1       -0.3783
     23 H          57.8658   92.4653    0.9996 H       1  UNL1        0.2109
     24 C          58.3081   92.6560   -2.3604 C.ar    1  UNL1        0.0067
     25 C          59.1820   93.6433   -3.0757 C.ar    1  UNL1       -0.0018
     26 C          58.9319   93.9571   -4.5210 C.ar    1  UNL1        0.0006
     27 C          57.8078   93.2838   -5.2511 C.ar    1  UNL1        0.0114
     28 C          56.9339   92.2966   -4.5358 C.ar    1  UNL1        0.0574
     29 CL         55.8098   91.6232   -5.2659 Cl      1  UNL1       -0.0823
     30 C          57.1840   91.9827   -3.0905 C.ar    1  UNL1        0.0095
     31 N          60.3432   88.8824    7.4387 N.pl3   1  UNL1       -0.3073
     32 C          60.1280   87.4126    7.2303 C.3     1  UNL1        0.0922
     33 C          60.6159   86.4305    8.2537 C.3     1  UNL1        0.0374
     34 C          61.3192   86.9183    9.4856 C.3     1  UNL1        0.0610
     35 C          61.5344   88.3880    9.6941 C.3     1  UNL1        0.0374
     36 C          61.0465   89.3701    8.6706 C.3     1  UNL1        0.0922
     37 N          61.8072   85.9363   10.5091 N.3     1  UNL1       -0.2708
     38 C          61.6049   86.0348   11.9921 C.3     1  UNL1        0.1020
     39 C          62.2558   84.8428   12.6289 C.3     1  UNL1        0.1326
     40 C          61.9786   85.5186   11.3188 C.3     1  UNL1        0.0495
     41 C          62.5830   84.6834   10.2293 C.3     1  UNL1        0.0898
     42 C          63.2340   83.4914   10.8661 C.3     1  UNL1        0.1580
     43 O          63.0317   83.5900   12.3491 O.3     1  UNL1       -0.3533
@<TRIPOS>BOND
     1     1     2    1
     2     2     3    2
     3     3     4    1
     4     4    31    1
     5    31    32    1
     6    32    33    1
     7    33    34    1
     8    34    37    1
     9    37    38    1
    10    39    38    1
    11    39    40    1
    12    40    41    1
    13    41    42    1
    14    42    43    1
    15    34    35    1
    16    35    36    1
    17     4     5    2
    18     5     6    1
    19     6     7    2
    20     7     8    1
    21     8    11    1
    22    11    12    1
    23    12    18    1
    24    18    20    1
    25    20    21    1
    26    21    22    1
    27    21    24    1
    28    24    25   ar
    29    25    26   ar
    30    26    27   ar
    31    27    28   ar
    32    28    29    1
    33    28    30   ar
    34    12    13    2
    35    13    14    1
    36    14    15    2
    37    15    16    1
    38    16    17    2
    39     8     9    2
    40     9    10    1
    41    10     2    1
    42    36    31    1
    43    10     6    1
    44    41    37    1
    45    16    11    1
    46    43    39    1
    47    30    24   ar
    48    18    19    1
    49    22    23    1
@<TRIPOS>MOLECULE
*****
 43 49 0 0 0
SMALL
GASTEIGER

@<TRIPOS>ATOM
      1 C          56.4479   91.5214    4.9413 C.3     1  UNL1        0.0312
      2 C          57.9082   91.2078    5.0792 C.2     1  UNL1        0.0136
      3 C          58.3748   90.2630    6.1468 C.2     1  UNL1        0.0107
      4 C          59.8351   89.9494    6.2847 C.2     1  UNL1        0.0509
      5 C          60.8289   90.5804    5.3551 C.2     1  UNL1        0.0613
      6 C          60.3623   91.5252    4.2875 C.2     1  UNL1        0.2246
      7 N          61.1030   92.2935    3.2335 N.2     1  UNL1       -0.0378
      8 C          60.1005   93.0820    2.4442 C.2     1  UNL1        0.3605
      9 N          58.7401   92.8011    3.0103 N.2     1  UNL1       -0.0547
     10 C          58.9019   91.8388    4.1496 C.3     1  UNL1        0.2976
     11 C          60.4048   93.9919    1.2911 C.3     1  UNL1        0.2246
     12 C          59.4395   94.1030    0.1483 C.2     1  UNL1        0.0436
     13 C          59.7439   95.0129   -1.0047 C.2     1  UNL1        0.0288
     14 C          61.0135   95.8116   -1.0151 C.2     1  UNL1        0.0896
     15 N          61.9788   95.7005    0.1276 N.am    1  UNL1       -0.1770
     16 C          61.6744   94.7906    1.2807 C.2     1  UNL1        0.2627
     17 O          62.6397   94.6795    2.4234 O.2     1  UNL1       -0.2719
     18 N          58.1698   93.3043    0.1586 N.pl3   1  UNL1       -0.3329
     19 H          57.5005   93.4530    0.8651 H       1  UNL1        0.1466
     20 C          57.9200   92.2791   -0.9075 C.3     1  UNL1        0.1211
     21 C          56.6760   92.3532   -1.7423 C.3     1  UNL1        0.1522
     22 O          55.9198   91.1010   -2.0742 O.3     1  UNL1       -0.3783
     23 H          56.3664   90.3381   -1.6748 H       1  UNL1        0.2109
     24 C          56.1882   93.6795   -2.2454 C.ar    1  UNL1        0.0067
     25 C          56.9812   94.4290   -3.2746 C.ar    1  UNL1       -0.0018
     26 C          56.4934   95.7553   -3.7776 C.ar    1  UNL1        0.0006
     27 C          55.2127   96.3321   -3.2514 C.ar    1  UNL1        0.0114
     28 C          54.4197   95.5826   -2.2222 C.ar    1  UNL1        0.0574
     29 CL         53.1389   96.1594   -1.6960 Cl      1  UNL1       -0.0823
     30 C          54.9075   94.2563   -1.7191 C.ar    1  UNL1        0.0095
     31 N          60.3017   89.0045    7.3524 N.pl3   1  UNL1       -0.3073
     32 C          61.0686   89.5252    8.5317 C.3     1  UNL1        0.0922
     33 C          61.5352   88.5805    9.5993 C.3     1  UNL1        0.0374
     34 C          61.2350   87.1151    9.4875 C.3     1  UNL1        0.0610
     35 C          60.4681   86.5944    8.3081 C.3     1  UNL1        0.0374
     36 C          60.0015   87.5392    7.2406 C.3     1  UNL1        0.0922
     37 N          61.7016   86.1703   10.5550 N.3     1  UNL1       -0.2708
     38 C          61.4565   86.3137   12.0279 C.3     1  UNL1        0.1020
     39 C          62.0986   85.1483   12.7203 C.3     1  UNL1        0.1326
     40 C          61.8532   85.7799   11.3821 C.3     1  UNL1        0.0495
     41 C          62.4951   84.9162   10.3371 C.3     1  UNL1        0.0898
     42 C          63.1372   83.7507   11.0296 C.3     1  UNL1        0.1580
     43 O          62.8921   83.8942   12.5024 O.3     1  UNL1       -0.3533
@<TRIPOS>BOND
     1     1     2    1
     2     2     3    2
     3     3     4    1
     4     4    31    1
     5    31    32    1
     6    32    33    1
     7    33    34    1
     8    34    37    1
     9    37    38    1
    10    39    38    1
    11    39    40    1
    12    40    41    1
    13    41    42    1
    14    42    43    1
    15    34    35    1
    16    35    36    1
    17     4     5    2
    18     5     6    1
    19     6     7    2
    20     7     8    1
    21     8    11    1
    22    11    12    1
    23    12    18    1
    24    18    20    1
    25    20    21    1
    26    21    22    1
    27    21    24    1
    28    24    25   ar
    29    25    26   ar
    30    26    27   ar
    31    27    28   ar
    32    28    29    1
    33    28    30   ar
    34    12    13    2
    35    13    14    1
    36    14    15    2
    37    15    16    1
    38    16    17    2
    39     8     9    2
    40     9    10    1
    41    10     2    1
    42    36    31    1
    43    10     6    1
    44    41    37    1
    45    16    11    1
    46    43    39    1
    47    30    24   ar
    48    18    19    1
    49    22    23    1
@<TRIPOS>MOLECULE
*****
 43 49 0 0 0
SMALL
GASTEIGER

@<TRIPOS>ATOM
      1 C          58.4744   86.6375    8.2599 C.3     1  UNL1        0.0312
      2 C          59.4175   87.7908    8.0858 C.2     1  UNL1        0.0136
      3 C          59.2698   88.7095    6.9093 C.2     1  UNL1        0.0107
      4 C          60.2128   89.8627    6.7351 C.2     1  UNL1        0.0509
      5 C          61.3038   90.0975    7.7375 C.2     1  UNL1        0.0613
      6 C          61.4516   89.1788    8.9140 C.2     1  UNL1        0.2246
      7 N          62.4232   89.1597   10.0567 N.2     1  UNL1       -0.0378
      8 C          62.0805   87.9946   10.9370 C.2     1  UNL1        0.3605
      9 N          60.8972   87.2936   10.3384 N.2     1  UNL1       -0.0547
     10 C          60.5084   88.0255    9.0882 C.3     1  UNL1        0.2976
     11 C          62.7957   87.5997   12.1950 C.3     1  UNL1        0.2246
     12 C          62.8312   86.1608   12.6175 C.2     1  UNL1        0.0436
     13 C          63.5464   85.7660   13.8755 C.2     1  UNL1        0.0288
     14 C          64.2261   86.8100   14.7111 C.2     1  UNL1        0.0896
     15 N          64.1906   88.2488   14.2886 N.am    1  UNL1       -0.1770
     16 C          63.4754   88.6436   13.0306 C.2     1  UNL1        0.2627
     17 O          63.4399   90.0824   12.6081 O.2     1  UNL1       -0.2719
     18 N          62.1515   85.1168   11.7820 N.pl3   1  UNL1       -0.3329
     19 H          61.1976   84.9180   11.9227 H       1  UNL1        0.1466
     20 C          62.9251   84.3757   10.7321 C.3     1  UNL1        0.1211
     21 C          63.8776   83.2876   11.1305 C.3     1  UNL1        0.1522
     22 O          65.3552   83.4870   10.9664 O.3     1  UNL1       -0.3783
     23 H          65.5233   84.3662   10.5927 H       1  UNL1        0.2109
     24 C          63.3525   82.0001   11.6932 C.ar    1  UNL1        0.0067
     25 C          62.9372   81.9246   13.1325 C.ar    1  UNL1       -0.0018
     26 C          62.4121   80.6371   13.6952 C.ar    1  UNL1        0.0006
     27 C          62.3022   79.4250   12.8184 C.ar    1  UNL1        0.0114
     28 C          62.7174   79.5005   11.3790 C.ar    1  UNL1        0.0574
     29 CL         62.6075   78.2884   10.5023 Cl      1  UNL1       -0.0823
     30 C          63.2425   80.7880   10.8164 C.ar    1  UNL1        0.0095
     31 N          60.0650   90.7814    5.5585 N.pl3   1  UNL1       -0.3073
     32 C          58.7191   91.3456    5.2119 C.3     1  UNL1        0.0922
     33 C          58.5713   92.2643    4.0354 C.3     1  UNL1        0.0374
     34 C          59.7694   92.6187    3.2054 C.3     1  UNL1        0.0610
     35 C          61.1154   92.0545    3.5520 C.3     1  UNL1        0.0374
     36 C          61.2632   91.1359    4.7286 C.3     1  UNL1        0.0922
     37 N          59.6217   93.5373    2.0289 N.3     1  UNL1       -0.2708
     38 C          59.0310   93.1773    0.6980 C.3     1  UNL1        0.1020
     39 C          59.0830   94.3947   -0.1768 C.3     1  UNL1        0.1326
     40 C          59.4159   93.8648    1.1864 C.3     1  UNL1        0.0495
     41 C          60.0388   94.9772    1.9767 C.3     1  UNL1        0.0898
     42 C          60.0908   96.1946    1.1019 C.3     1  UNL1        0.1580
     43 O          59.5000   95.8346   -0.2290 O.3     1  UNL1       -0.3533
@<TRIPOS>BOND
     1     1     2    1
     2     2     3    2
     3     3     4    1
     4     4    31    1
     5    31    32    1
     6    32    33    1
     7    33    34    1
     8    34    37    1
     9    37    38    1
    10    39    38    1
    11    39    40    1
    12    40    41    1
    13    41    42    1
    14    42    43    1
    15    34    35    1
    16    35    36    1
    17     4     5    2
    18     5     6    1
    19     6     7    2
    20     7     8    1
    21     8    11    1
    22    11    12    1
    23    12    18    1
    24    18    20    1
    25    20    21    1
    26    21    22    1
    27    21    24    1
    28    24    25   ar
    29    25    26   ar
    30    26    27   ar
    31    27    28   ar
    32    28    29    1
    33    28    30   ar
    34    12    13    2
    35    13    14    1
    36    14    15    2
    37    15    16    1
    38    16    17    2
    39     8     9    2
    40     9    10    1
    41    10     2    1
    42    36    31    1
    43    10     6    1
    44    41    37    1
    45    16    11    1
    46    43    39    1
    47    30    24   ar
    48    18    19    1
    49    22    23    1
@<TRIPOS>MOLECULE
*****
 43 49 0 0 0
SMALL
GASTEIGER

@<TRIPOS>ATOM
      1 C          63.5522   90.0519   17.2087 C.3     1  UNL1        0.0312
      2 C          63.6806   89.3393   15.8950 C.2     1  UNL1        0.0136
      3 C          63.3161   87.8880   15.7903 C.2     1  UNL1        0.0107
      4 C          63.4444   87.1754   14.4767 C.2     1  UNL1        0.0509
      5 C          63.9375   87.9140   13.2677 C.2     1  UNL1        0.0613
      6 C          64.3020   89.3652   13.3725 C.2     1  UNL1        0.2246
      7 N          64.8126   90.3474   12.3603 N.2     1  UNL1       -0.0378
      8 C          64.9997   91.6671   13.0483 C.2     1  UNL1        0.3605
      9 N          64.6048   91.5005   14.4858 N.2     1  UNL1       -0.0547
     10 C          64.1736   90.0779   14.6862 C.3     1  UNL1        0.2976
     11 C          65.4949   92.9314   12.4109 C.3     1  UNL1        0.2246
     12 C          65.3643   93.1253   10.9292 C.2     1  UNL1        0.0436
     13 C          65.8594   94.3897   10.2918 C.2     1  UNL1        0.0288
     14 C          66.4851   95.4601   11.1360 C.2     1  UNL1        0.0896
     15 N          66.6157   95.2662   12.6177 N.am    1  UNL1       -0.1770
     16 C          66.1206   94.0018   13.2551 C.2     1  UNL1        0.2627
     17 O          66.2512   93.8079   14.7367 O.2     1  UNL1       -0.2719
     18 N          64.7386   92.0550   10.0850 N.pl3   1  UNL1       -0.3329
     19 H          65.3041   91.3723    9.6568 H       1  UNL1        0.1466
     20 C          63.2512   92.0247    9.8931 C.3     1  UNL1        0.1211
     21 C          62.4138   91.0556   10.6739 C.3     1  UNL1        0.1522
     22 O          62.1795   91.2776   12.1388 O.3     1  UNL1       -0.3783
     23 H          62.6360   92.0858   12.4204 H       1  UNL1        0.2109
     24 C          61.8108   89.8646    9.9899 C.ar    1  UNL1        0.0067
     25 C          60.5523   90.0176    9.1883 C.ar    1  UNL1       -0.0018
     26 C          59.9493   88.8266    8.5043 C.ar    1  UNL1        0.0006
     27 C          60.6049   87.4826    8.6218 C.ar    1  UNL1        0.0114
     28 C          61.8634   87.3296    9.4233 C.ar    1  UNL1        0.0574
     29 CL         62.5190   85.9856    9.5409 Cl      1  UNL1       -0.0823
     30 C          62.4664   88.5206   10.1074 C.ar    1  UNL1        0.0095
     31 N          63.0798   85.7241   14.3720 N.pl3   1  UNL1       -0.3073
     32 C          62.9583   85.0767   13.0243 C.3     1  UNL1        0.0922
     33 C          62.5937   83.6255   12.9195 C.3     1  UNL1        0.0374
     34 C          62.3507   82.8217   14.1624 C.3     1  UNL1        0.0610
     35 C          62.4722   83.4690   15.5101 C.3     1  UNL1        0.0374
     36 C          62.8368   84.9203   15.6148 C.3     1  UNL1        0.0922
     37 N          61.9861   81.3704   14.0577 N.3     1  UNL1       -0.2708
     38 C          62.9321   80.2422   13.7710 C.3     1  UNL1        0.1020
     39 C          62.1422   78.9671   13.7574 C.3     1  UNL1        0.1326
     40 C          62.0457   80.4524   13.9430 C.3     1  UNL1        0.0495
     41 C          60.6116   80.7926   14.2215 C.3     1  UNL1        0.0898
     42 C          59.8217   79.5175   14.2079 C.3     1  UNL1        0.1580
     43 O          60.7677   78.3893   13.9212 O.3     1  UNL1       -0.3533
@<TRIPOS>BOND
     1     1     2    1
     2     2     3    2
     3     3     4    1
     4     4    31    1
     5    31    32    1
     6    32    33    1
     7    33    34    1
     8    34    37    1
     9    37    38    1
    10    39    38    1
    11    39    40    1
    12    40    41    1
    13    41    42    1
    14    42    43    1
    15    34    35    1
    16    35    36    1
    17     4     5    2
    18     5     6    1
    19     6     7    2
    20     7     8    1
    21     8    11    1
    22    11    12    1
    23    12    18    1
    24    18    20    1
    25    20    21    1
    26    21    22    1
    27    21    24    1
    28    24    25   ar
    29    25    26   ar
    30    26    27   ar
    31    27    28   ar
    32    28    29    1
    33    28    30   ar
    34    12    13    2
    35    13    14    1
    36    14    15    2
    37    15    16    1
    38    16    17    2
    39     8     9    2
    40     9    10    1
    41    10     2    1
    42    36    31    1
    43    10     6    1
    44    41    37    1
    45    16    11    1
    46    43    39    1
    47    30    24   ar
    48    18    19    1
    49    22    23    1
@<TRIPOS>MOLECULE
*****
 43 49 0 0 0
SMALL
GASTEIGER

@<TRIPOS>ATOM
      1 C          57.9716   86.1885    8.2958 C.3     1  UNL1        0.0312
      2 C          59.0786   87.1914    8.1587 C.2     1  UNL1        0.0136
      3 C          59.0061   88.2480    7.0965 C.2     1  UNL1        0.0107
      4 C          60.1131   89.2509    6.9594 C.2     1  UNL1        0.0509
      5 C          61.2926   89.1972    7.8846 C.2     1  UNL1        0.0613
      6 C          61.3651   88.1406    8.9468 C.2     1  UNL1        0.2246
      7 N          62.3946   87.8409    9.9957 N.2     1  UNL1       -0.0378
      8 C          61.9239   86.6527   10.7810 C.2     1  UNL1        0.3605
      9 N          60.6035   86.2181   10.2175 N.2     1  UNL1       -0.0547
     10 C          60.2581   87.1377    9.0839 C.3     1  UNL1        0.2976
     11 C          62.6467   86.0117   11.9285 C.3     1  UNL1        0.2246
     12 C          63.3071   86.8656   12.9700 C.2     1  UNL1        0.0436
     13 C          64.0300   86.2244   14.1174 C.2     1  UNL1        0.0288
     14 C          64.0924   84.7295   14.2233 C.2     1  UNL1        0.0896
     15 N          63.4320   83.8756   13.1818 N.am    1  UNL1       -0.1770
     16 C          62.7092   84.5167   12.0344 C.2     1  UNL1        0.2627
     17 O          62.0487   83.6629   10.9929 O.2     1  UNL1       -0.2719
     18 N          63.2448   88.3605   12.8641 N.pl3   1  UNL1       -0.3329
     19 H          62.7084   88.7817   12.1541 H       1  UNL1        0.1466
     20 C          63.9996   89.2137   13.8400 C.3     1  UNL1        0.1211
     21 C          63.8303   90.7040   13.8208 C.3     1  UNL1        0.1522
     22 O          63.2675   91.4103   15.0184 O.3     1  UNL1       -0.3783
     23 H          63.0672   90.7621   15.7116 H       1  UNL1        0.2109
     24 C          64.2239   91.4878   12.6040 C.ar    1  UNL1        0.0067
     25 C          63.5516   91.2210   11.2900 C.ar    1  UNL1       -0.0018
     26 C          63.9452   92.0049   10.0732 C.ar    1  UNL1        0.0006
     27 C          65.0112   93.0557   10.1704 C.ar    1  UNL1        0.0114
     28 C          65.6835   93.3226   11.4844 C.ar    1  UNL1        0.0574
     29 CL         66.7495   94.3734   11.5816 Cl      1  UNL1       -0.0823
     30 C          65.2899   92.5387   12.7012 C.ar    1  UNL1        0.0095
     31 N          60.0406   90.3075    5.8971 N.pl3   1  UNL1       -0.3073
     32 C          61.2789   90.7068    5.1507 C.3     1  UNL1        0.0922
     33 C          61.2064   91.7633    4.0885 C.3     1  UNL1        0.0374
     34 C          59.8956   92.4207    3.7727 C.3     1  UNL1        0.0610
     35 C          58.6573   92.0214    4.5192 C.3     1  UNL1        0.0374
     36 C          58.7298   90.9649    5.5814 C.3     1  UNL1        0.0922
     37 N          59.8231   93.4773    2.7105 N.3     1  UNL1       -0.2708
     38 C          59.3891   93.2706    1.2896 C.3     1  UNL1        0.1020
     39 C          59.4695   94.5916    0.5836 C.3     1  UNL1        0.1326
     40 C          59.6880   93.9030    1.8981 C.3     1  UNL1        0.0495
     41 C          60.1717   94.9260    2.8826 C.3     1  UNL1        0.0898
     42 C          60.2522   96.2470    2.1766 C.3     1  UNL1        0.1580
     43 O          59.8182   96.0404    0.7557 O.3     1  UNL1       -0.3533
@<TRIPOS>BOND
     1     1     2    1
     2     2     3    2
     3     3     4    1
     4     4    31    1
     5    31    32    1
     6    32    33    1
     7    33    34    1
     8    34    37    1
     9    37    38    1
    10    39    38    1
    11    39    40    1
    12    40    41    1
    13    41    42    1
    14    42    43    1
    15    34    35    1
    16    35    36    1
    17     4     5    2
    18     5     6    1
    19     6     7    2
    20     7     8    1
    21     8    11    1
    22    11    12    1
    23    12    18    1
    24    18    20    1
    25    20    21    1
    26    21    22    1
    27    21    24    1
    28    24    25   ar
    29    25    26   ar
    30    26    27   ar
    31    27    28   ar
    32    28    29    1
    33    28    30   ar
    34    12    13    2
    35    13    14    1
    36    14    15    2
    37    15    16    1
    38    16    17    2
    39     8     9    2
    40     9    10    1
    41    10     2    1
    42    36    31    1
    43    10     6    1
    44    41    37    1
    45    16    11    1
    46    43    39    1
    47    30    24   ar
    48    18    19    1
    49    22    23    1
