@<TRIPOS>MOLECULE
*****
 24 27 0 0 0
SMALL
GASTEIGER

@<TRIPOS>ATOM
      1 O          60.8173   89.7254   12.6898 O.2     1  UNL1       -0.2448
      2 C          62.0914   89.3789   11.9780 C.2     1  UNL1        0.3428
      3 C          63.0537   90.4630   11.5923 C.2     1  UNL1        0.0963
      4 C          63.0583   91.2176   10.2959 C.2     1  UNL1        0.1049
      5 N          64.1878   92.2037   10.3377 N.2     1  UNL1       -0.2475
      6 C          64.8813   92.0586   11.6598 C.2     1  UNL1        0.0673
      7 C          66.0604   92.7671   12.2579 C.3     1  UNL1        0.1093
      8 C          66.5386   92.3997   13.6314 C.2     1  UNL1        0.1176
      9 O          67.7177   93.1082   14.2294 O.2     1  UNL1       -0.5094
     10 C          65.8377   91.3239   14.4068 C.2     1  UNL1        0.0392
     11 C          64.6585   90.6154   13.8086 C.2     1  UNL1        0.0386
     12 BR         63.9576   89.5395   14.5840 Br      1  UNL1       -0.0489
     13 C          64.1803   90.9827   12.4352 C.2     1  UNL1        0.0281
     14 H          68.1556   93.7802   13.7450 H       1  UNL1        0.2917
     15 O          62.4031   87.9484   11.6519 O.3     1  UNL1       -0.4454
     16 C          61.3155   87.0348   11.1698 C.3     1  UNL1        0.2087
     17 C          61.3866   86.4459    9.7920 C.3     1  UNL1        0.0445
     18 C          60.2050   86.5428    8.8731 C.3     1  UNL1        0.0210
     19 C          60.2762   85.9540    7.4953 C.3     1  UNL1        0.0722
     20 N          61.5289   85.2682    7.0366 N.3     1  UNL1       -0.2727
     21 C          62.7105   85.1714    7.9555 C.3     1  UNL1        0.0722
     22 C          62.6393   85.7602    9.3332 C.3     1  UNL1        0.0210
     23 C          61.5371   85.5757    7.8003 C.3     1  UNL1        0.0722
     24 C          61.4729   86.1081    9.0461 C.3     1  UNL1        0.0210
@<TRIPOS>BOND
     1     1     2    2
     2     2    15    1
     3    15    16    1
     4    16    17    1
     5    17    18    1
     6    18    19    1
     7    19    20    1
     8    20    21    1
     9    21    22    1
    10    20    23    1
    11    23    24    1
    12     2     3    1
    13     3     4    2
    14     4     5    1
    15     5     6    2
    16     6     7    1
    17     7     8    1
    18     8     9    1
    19     8    10    2
    20    10    11    1
    21    11    12    1
    22    11    13    2
    23    22    17    1
    24    13     3    1
    25    24    17    1
    26    13     6    1
    27     9    14    1
@<TRIPOS>MOLECULE
*****
 24 27 0 0 0
SMALL
GASTEIGER

@<TRIPOS>ATOM
      1 O          60.9437   89.6245   12.3257 O.2     1  UNL1       -0.2448
      2 C          62.3502   89.1035   12.3385 C.2     1  UNL1        0.3428
      3 C          63.4341   89.8871   13.0176 C.2     1  UNL1        0.0963
      4 C          63.9372   89.6692   14.4138 C.2     1  UNL1        0.1049
      5 N          65.0192   90.6737   14.6787 N.2     1  UNL1       -0.2475
      6 C          65.1849   91.5124   13.4462 C.2     1  UNL1        0.0673
      7 C          66.1013   92.6560   13.1261 C.3     1  UNL1        0.1093
      8 C          66.0380   93.3135   11.7793 C.2     1  UNL1        0.1176
      9 O          66.9543   94.4571   11.4592 O.2     1  UNL1       -0.5094
     10 C          65.0583   92.8274   10.7527 C.2     1  UNL1        0.0392
     11 C          64.1420   91.6838   11.0728 C.2     1  UNL1        0.0386
     12 BR         63.1623   91.1977   10.0462 Br      1  UNL1       -0.0489
     13 C          64.2053   91.0263   12.4195 C.2     1  UNL1        0.0281
     14 H          67.5663   94.7607   12.1005 H       1  UNL1        0.2917
     15 O          62.6729   87.7988   11.6724 O.3     1  UNL1       -0.4454
     16 C          61.5660   86.8827   11.2415 C.3     1  UNL1        0.2087
     17 C          61.5292   86.3603    9.8359 C.3     1  UNL1        0.0445
     18 C          62.7188   85.6418    9.2714 C.3     1  UNL1        0.0210
     19 C          62.6819   85.1193    7.8659 C.3     1  UNL1        0.0722
     20 N          61.4554   85.3154    7.0248 N.3     1  UNL1       -0.2727
     21 C          60.2659   86.0339    7.5893 C.3     1  UNL1        0.0722
     22 C          60.3027   86.5563    8.9949 C.3     1  UNL1        0.0210
     23 C          61.4288   85.6194    7.7895 C.3     1  UNL1        0.0722
     24 C          61.4620   86.0918    9.0604 C.3     1  UNL1        0.0210
@<TRIPOS>BOND
     1     1     2    2
     2     2    15    1
     3    15    16    1
     4    16    17    1
     5    17    18    1
     6    18    19    1
     7    19    20    1
     8    20    21    1
     9    21    22    1
    10    20    23    1
    11    23    24    1
    12     2     3    1
    13     3     4    2
    14     4     5    1
    15     5     6    2
    16     6     7    1
    17     7     8    1
    18     8     9    1
    19     8    10    2
    20    10    11    1
    21    11    12    1
    22    11    13    2
    23    22    17    1
    24    13     3    1
    25    24    17    1
    26    13     6    1
    27     9    14    1
@<TRIPOS>MOLECULE
*****
 24 27 0 0 0
SMALL
GASTEIGER

@<TRIPOS>ATOM
      1 O          60.7964   89.2324   12.2452 O.2     1  UNL1       -0.2448
      2 C          62.2438   89.0461   11.8984 C.2     1  UNL1        0.3428
      3 C          63.0966   90.2367   11.5741 C.2     1  UNL1        0.0963
      4 C          63.0906   91.0001   10.2829 C.2     1  UNL1        0.1049
      5 N          64.0954   92.1082   10.3950 N.2     1  UNL1       -0.2475
      6 C          64.7224   92.0296   11.7554 C.2     1  UNL1        0.0673
      7 C          65.7757   92.8618   12.4247 C.3     1  UNL1        0.1093
      8 C          66.2117   92.5374   13.8228 C.2     1  UNL1        0.1176
      9 O          67.2649   93.3696   14.4922 O.2     1  UNL1       -0.5094
     10 C          65.5943   91.3807   14.5516 C.2     1  UNL1        0.0392
     11 C          64.5410   90.5485   13.8822 C.2     1  UNL1        0.0386
     12 BR         63.9237   89.3919   14.6110 Br      1  UNL1       -0.0489
     13 C          64.1051   90.8730   12.4842 C.2     1  UNL1        0.0281
     14 H          67.6506   94.0921   14.0369 H       1  UNL1        0.2917
     15 O          62.8384   87.6692   11.8758 O.3     1  UNL1       -0.4454
     16 C          62.1435   86.5641   11.1369 C.3     1  UNL1        0.2087
     17 C          62.6820   85.1655   11.1997 C.3     1  UNL1        0.0445
     18 C          63.3193   84.5521    9.9882 C.3     1  UNL1        0.0210
     19 C          63.8578   83.1536   10.0511 C.3     1  UNL1        0.0722
     20 N          63.7590   82.3684   11.3253 N.3     1  UNL1       -0.2727
     21 C          63.1217   82.9817   12.5367 C.3     1  UNL1        0.0722
     22 C          62.5832   84.3803   12.4739 C.3     1  UNL1        0.0210
     23 C          63.4497   83.1313   11.3391 C.3     1  UNL1        0.0722
     24 C          62.9628   84.3959   11.2824 C.3     1  UNL1        0.0210
@<TRIPOS>BOND
     1     1     2    2
     2     2    15    1
     3    15    16    1
     4    16    17    1
     5    17    18    1
     6    18    19    1
     7    19    20    1
     8    20    21    1
     9    21    22    1
    10    20    23    1
    11    23    24    1
    12     2     3    1
    13     3     4    2
    14     4     5    1
    15     5     6    2
    16     6     7    1
    17     7     8    1
    18     8     9    1
    19     8    10    2
    20    10    11    1
    21    11    12    1
    22    11    13    2
    23    22    17    1
    24    13     3    1
    25    24    17    1
    26    13     6    1
    27     9    14    1
@<TRIPOS>MOLECULE
*****
 24 27 0 0 0
SMALL
GASTEIGER

@<TRIPOS>ATOM
      1 O          64.8821   84.9765   13.6955 O.2     1  UNL1       -0.2448
      2 C          63.4609   84.6407   13.3530 C.2     1  UNL1        0.3428
      3 C          62.9541   83.2417   13.5425 C.2     1  UNL1        0.0963
      4 C          62.3143   82.6964   14.7848 C.2     1  UNL1        0.1049
      5 N          61.9631   81.2600   14.5330 N.2     1  UNL1       -0.2475
      6 C          62.3858   80.9176   13.1351 C.2     1  UNL1        0.0673
      7 C          62.2920   79.6488   12.3406 C.3     1  UNL1        0.1093
      8 C          62.8109   79.6047   10.9338 C.2     1  UNL1        0.1176
      9 O          62.7171   78.3359   10.1393 O.2     1  UNL1       -0.5094
     10 C          63.4234   80.8294   10.3216 C.2     1  UNL1        0.0392
     11 C          63.5171   82.0983   11.1162 C.2     1  UNL1        0.0386
     12 BR         64.1296   83.3231   10.5041 Br      1  UNL1       -0.0489
     13 C          62.9983   82.1423   12.5229 C.2     1  UNL1        0.0281
     14 H          62.3345   77.5708   10.5217 H       1  UNL1        0.2917
     15 O          62.5463   85.7040   12.8209 O.3     1  UNL1       -0.4454
     16 C          61.9772   85.5810   11.4385 C.3     1  UNL1        0.2087
     17 C          61.5907   86.8124   10.6742 C.3     1  UNL1        0.0445
     18 C          62.2936   88.1108   10.9388 C.3     1  UNL1        0.0210
     19 C          61.9070   89.3422   10.1745 C.3     1  UNL1        0.0722
     20 N          60.8176   89.2751    9.1455 N.3     1  UNL1       -0.2727
     21 C          60.1147   87.9767    8.8810 C.3     1  UNL1        0.0722
     22 C          60.5013   86.7453    9.6453 C.3     1  UNL1        0.0210
     23 C          60.9946   88.5740    9.5392 C.3     1  UNL1        0.0722
     24 C          61.3441   87.4605   10.2303 C.3     1  UNL1        0.0210
@<TRIPOS>BOND
     1     1     2    2
     2     2    15    1
     3    15    16    1
     4    16    17    1
     5    17    18    1
     6    18    19    1
     7    19    20    1
     8    20    21    1
     9    21    22    1
    10    20    23    1
    11    23    24    1
    12     2     3    1
    13     3     4    2
    14     4     5    1
    15     5     6    2
    16     6     7    1
    17     7     8    1
    18     8     9    1
    19     8    10    2
    20    10    11    1
    21    11    12    1
    22    11    13    2
    23    22    17    1
    24    13     3    1
    25    24    17    1
    26    13     6    1
    27     9    14    1
@<TRIPOS>MOLECULE
*****
 24 27 0 0 0
SMALL
GASTEIGER

@<TRIPOS>ATOM
      1 O          61.6135   84.3757   14.9015 O.2     1  UNL1       -0.2448
      2 C          63.0382   84.5432   14.4632 C.2     1  UNL1        0.3428
      3 C          63.5222   83.8709   13.2127 C.2     1  UNL1        0.0963
      4 C          64.3574   82.6267   13.1473 C.2     1  UNL1        0.1049
      5 N          64.6074   82.3117   11.7022 N.2     1  UNL1       -0.2475
      6 C          63.9266   83.3613   10.8745 C.2     1  UNL1        0.0673
      7 C          63.8308   83.5640    9.3914 C.3     1  UNL1        0.1093
      8 C          63.0643   84.7304    8.8418 C.2     1  UNL1        0.1176
      9 O          62.9686   84.9331    7.3586 O.2     1  UNL1       -0.5094
     10 C          62.3937   85.6940    9.7753 C.2     1  UNL1        0.0392
     11 C          62.4895   85.4913   11.2585 C.2     1  UNL1        0.0386
     12 BR         61.8188   86.4550   12.1921 Br      1  UNL1       -0.0489
     13 C          63.2560   84.3249   11.8081 C.2     1  UNL1        0.0281
     14 H          63.3875   84.3311    6.7755 H       1  UNL1        0.2917
     15 O          63.9789   85.3830   15.2755 O.3     1  UNL1       -0.4454
     16 C          64.6674   86.5586   14.6479 C.3     1  UNL1        0.2087
     17 C          64.1961   87.9510   14.9464 C.3     1  UNL1        0.0445
     18 C          63.5912   88.2679   16.2819 C.3     1  UNL1        0.0210
     19 C          63.1198   89.6603   16.5803 C.3     1  UNL1        0.0722
     20 N          63.2534   90.7357   15.5432 N.3     1  UNL1       -0.2727
     21 C          63.8583   90.4188   14.2077 C.3     1  UNL1        0.0722
     22 C          64.3296   89.0264   13.9093 C.3     1  UNL1        0.0210
     23 C          63.5259   89.9876   15.3337 C.3     1  UNL1        0.0722
     24 C          63.9522   88.7286   15.0638 C.3     1  UNL1        0.0210
@<TRIPOS>BOND
     1     1     2    2
     2     2    15    1
     3    15    16    1
     4    16    17    1
     5    17    18    1
     6    18    19    1
     7    19    20    1
     8    20    21    1
     9    21    22    1
    10    20    23    1
    11    23    24    1
    12     2     3    1
    13     3     4    2
    14     4     5    1
    15     5     6    2
    16     6     7    1
    17     7     8    1
    18     8     9    1
    19     8    10    2
    20    10    11    1
    21    11    12    1
    22    11    13    2
    23    22    17    1
    24    13     3    1
    25    24    17    1
    26    13     6    1
    27     9    14    1
@<TRIPOS>MOLECULE
*****
 24 27 0 0 0
SMALL
GASTEIGER

@<TRIPOS>ATOM
      1 O          63.3018   90.1346   10.1187 O.2     1  UNL1       -0.2448
      2 C          62.6039   90.4511   11.4082 C.2     1  UNL1        0.3428
      3 C          63.3755   90.4666   12.6944 C.2     1  UNL1        0.0963
      4 C          63.0640   89.6586   13.9192 C.2     1  UNL1        0.1049
      5 N          64.0900   89.9855   14.9634 N.2     1  UNL1       -0.2475
      6 C          65.0357   90.9954   14.3840 C.2     1  UNL1        0.0673
      7 C          66.2418   91.6827   14.9521 C.3     1  UNL1        0.1093
      8 C          67.0065   92.6674   14.1179 C.2     1  UNL1        0.1176
      9 O          68.2126   93.3546   14.6860 O.2     1  UNL1       -0.5094
     10 C          66.5649   92.9647   12.7156 C.2     1  UNL1        0.0392
     11 C          65.3586   92.2774   12.1474 C.2     1  UNL1        0.0386
     12 BR         64.9170   92.5747   10.7451 Br      1  UNL1       -0.0489
     13 C          64.5941   91.2928   12.9816 C.2     1  UNL1        0.0281
     14 H          68.4884   93.1689   15.5620 H       1  UNL1        0.2917
     15 O          61.1345   90.7521   11.4114 O.3     1  UNL1       -0.4454
     16 C          60.1390   89.6300   11.4053 C.3     1  UNL1        0.2087
     17 C          60.3281   88.4646   10.4801 C.3     1  UNL1        0.0445
     18 C          59.8709   88.5567    9.0545 C.3     1  UNL1        0.0210
     19 C          60.0601   87.3912    8.1294 C.3     1  UNL1        0.0722
     20 N          60.7065   86.1336    8.6299 N.3     1  UNL1       -0.2727
     21 C          61.1638   86.0415   10.0556 C.3     1  UNL1        0.0722
     22 C          60.9746   87.2070   10.9807 C.3     1  UNL1        0.0210
     23 C          60.6243   86.7460    9.1741 C.3     1  UNL1        0.0722
     24 C          60.4532   87.7997   10.0107 C.3     1  UNL1        0.0210
@<TRIPOS>BOND
     1     1     2    2
     2     2    15    1
     3    15    16    1
     4    16    17    1
     5    17    18    1
     6    18    19    1
     7    19    20    1
     8    20    21    1
     9    21    22    1
    10    20    23    1
    11    23    24    1
    12     2     3    1
    13     3     4    2
    14     4     5    1
    15     5     6    2
    16     6     7    1
    17     7     8    1
    18     8     9    1
    19     8    10    2
    20    10    11    1
    21    11    12    1
    22    11    13    2
    23    22    17    1
    24    13     3    1
    25    24    17    1
    26    13     6    1
    27     9    14    1
@<TRIPOS>MOLECULE
*****
 24 27 0 0 0
SMALL
GASTEIGER

@<TRIPOS>ATOM
      1 O          60.8782   88.8530   11.7087 O.2     1  UNL1       -0.2448
      2 C          62.3775   88.8055   11.7102 C.2     1  UNL1        0.3428
      3 C          63.0982   87.8987   12.6633 C.2     1  UNL1        0.0963
      4 C          63.9069   88.3308   13.8504 C.2     1  UNL1        0.1049
      5 N          64.4452   87.0998   14.5174 N.2     1  UNL1       -0.2475
      6 C          63.9691   85.9070   13.7425 C.2     1  UNL1        0.0673
      7 C          64.1862   84.4350   13.9323 C.3     1  UNL1        0.1093
      8 C          63.5706   83.4566   12.9762 C.2     1  UNL1        0.1176
      9 O          63.7877   81.9846   13.1660 O.2     1  UNL1       -0.5094
     10 C          62.7381   83.9504   11.8303 C.2     1  UNL1        0.0392
     11 C          62.5211   85.4225   11.6405 C.2     1  UNL1        0.0386
     12 BR         61.6886   85.9162   10.4946 Br      1  UNL1       -0.0489
     13 C          63.1366   86.4007   12.5966 C.2     1  UNL1        0.0281
     14 H          64.3077   81.6762   13.8818 H       1  UNL1        0.2917
     15 O          63.1560   89.6647   10.7586 O.3     1  UNL1       -0.4454
     16 C          63.1869   91.1528   10.9452 C.3     1  UNL1        0.2087
     17 C          64.4207   91.8159   11.4819 C.3     1  UNL1        0.0445
     18 C          64.7772   91.6756   12.9321 C.3     1  UNL1        0.0210
     19 C          66.0110   92.3387   13.4687 C.3     1  UNL1        0.0722
     20 N          66.8883   93.1421   12.5551 N.3     1  UNL1       -0.2727
     21 C          66.5319   93.2825   11.1048 C.3     1  UNL1        0.0722
     22 C          65.2980   92.6193   10.5682 C.3     1  UNL1        0.0210
     23 C          66.2225   92.7971   12.2152 C.3     1  UNL1        0.0722
     24 C          65.1069   92.1976   11.7299 C.3     1  UNL1        0.0210
@<TRIPOS>BOND
     1     1     2    2
     2     2    15    1
     3    15    16    1
     4    16    17    1
     5    17    18    1
     6    18    19    1
     7    19    20    1
     8    20    21    1
     9    21    22    1
    10    20    23    1
    11    23    24    1
    12     2     3    1
    13     3     4    2
    14     4     5    1
    15     5     6    2
    16     6     7    1
    17     7     8    1
    18     8     9    1
    19     8    10    2
    20    10    11    1
    21    11    12    1
    22    11    13    2
    23    22    17    1
    24    13     3    1
    25    24    17    1
    26    13     6    1
    27     9    14    1
@<TRIPOS>MOLECULE
*****
 24 27 0 0 0
SMALL
GASTEIGER

@<TRIPOS>ATOM
      1 O          63.8940   86.1788   13.6766 O.2     1  UNL1       -0.2448
      2 C          63.1767   85.8590   12.3987 C.2     1  UNL1        0.3428
      3 C          63.2637   84.4801   11.8146 C.2     1  UNL1        0.0963
      4 C          63.7313   84.1364   10.4314 C.2     1  UNL1        0.1049
      5 N          63.6549   82.6468   10.2731 N.2     1  UNL1       -0.2475
      6 C          63.1400   82.0698   11.5584 C.2     1  UNL1        0.0673
      7 C          62.8602   80.6591   11.9844 C.3     1  UNL1        0.1093
      8 C          62.3384   80.3814   13.3631 C.2     1  UNL1        0.1176
      9 O          62.0586   78.9707   13.7891 O.2     1  UNL1       -0.5094
     10 C          62.0966   81.5145   14.3158 C.2     1  UNL1        0.0392
     11 C          62.3766   82.9253   13.8898 C.2     1  UNL1        0.0386
     12 BR         62.1348   84.0584   14.8425 Br      1  UNL1       -0.0489
     13 C          62.8982   83.2029   12.5111 C.2     1  UNL1        0.0281
     14 H          62.2096   78.2629   13.1940 H       1  UNL1        0.2917
     15 O          62.3724   86.9181   11.7048 O.3     1  UNL1       -0.4454
     16 C          60.9985   86.6016   11.1928 C.3     1  UNL1        0.2087
     17 C          60.5084   87.2302    9.9221 C.3     1  UNL1        0.0445
     18 C          60.0907   86.3652    8.7700 C.3     1  UNL1        0.0210
     19 C          59.6007   86.9938    7.4993 C.3     1  UNL1        0.0722
     20 N          59.5284   88.4874    7.3807 N.3     1  UNL1       -0.2727
     21 C          59.9461   89.3523    8.5328 C.3     1  UNL1        0.0722
     22 C          60.4361   88.7237    9.8035 C.3     1  UNL1        0.0210
     23 C          59.8036   88.1887    8.0969 C.3     1  UNL1        0.0722
     24 C          60.2467   87.6204    9.2459 C.3     1  UNL1        0.0210
@<TRIPOS>BOND
     1     1     2    2
     2     2    15    1
     3    15    16    1
     4    16    17    1
     5    17    18    1
     6    18    19    1
     7    19    20    1
     8    20    21    1
     9    21    22    1
    10    20    23    1
    11    23    24    1
    12     2     3    1
    13     3     4    2
    14     4     5    1
    15     5     6    2
    16     6     7    1
    17     7     8    1
    18     8     9    1
    19     8    10    2
    20    10    11    1
    21    11    12    1
    22    11    13    2
    23    22    17    1
    24    13     3    1
    25    24    17    1
    26    13     6    1
    27     9    14    1
@<TRIPOS>MOLECULE
*****
 24 27 0 0 0
SMALL
GASTEIGER

@<TRIPOS>ATOM
      1 O          59.3685   88.5499   12.0780 O.2     1  UNL1       -0.2448
      2 C          60.5668   88.7112   11.1904 C.2     1  UNL1        0.3428
      3 C          61.3372   87.5042   10.7437 C.2     1  UNL1        0.0963
      4 C          62.3927   86.7896   11.5344 C.2     1  UNL1        0.1049
      5 N          62.8952   85.6436   10.7072 N.2     1  UNL1       -0.2475
      6 C          62.1501   85.6499    9.4053 C.2     1  UNL1        0.0673
      7 C          62.2241   84.7571    8.2022 C.3     1  UNL1        0.1093
      8 C          61.3352   85.0143    7.0216 C.2     1  UNL1        0.1176
      9 O          61.4092   84.1215    5.8185 O.2     1  UNL1       -0.5094
     10 C          60.3723   86.1642    7.0442 C.2     1  UNL1        0.0392
     11 C          60.2984   87.0570    8.2474 C.2     1  UNL1        0.0386
     12 BR         59.3355   88.2069    8.2699 Br      1  UNL1       -0.0489
     13 C          61.1873   86.7998    9.4279 C.2     1  UNL1        0.0281
     14 H          62.0107   83.4032    5.8045 H       1  UNL1        0.2917
     15 O          60.9948   90.0796   10.7495 O.3     1  UNL1       -0.4454
     16 C          62.4096   90.3183   10.3117 C.3     1  UNL1        0.2087
     17 C          63.3927   90.9405   11.2584 C.3     1  UNL1        0.0445
     18 C          64.3107   92.0260   10.7800 C.3     1  UNL1        0.0210
     19 C          65.2938   92.6482   11.7267 C.3     1  UNL1        0.0722
     20 N          65.3590   92.1849   13.1518 N.3     1  UNL1       -0.2727
     21 C          64.4411   91.0993   13.6303 C.3     1  UNL1        0.0722
     22 C          63.4579   90.4771   12.6835 C.3     1  UNL1        0.0210
     23 C          64.8039   91.8139   12.6701 C.3     1  UNL1        0.0722
     24 C          63.9148   91.2513   11.8141 C.3     1  UNL1        0.0210
@<TRIPOS>BOND
     1     1     2    2
     2     2    15    1
     3    15    16    1
     4    16    17    1
     5    17    18    1
     6    18    19    1
     7    19    20    1
     8    20    21    1
     9    21    22    1
    10    20    23    1
    11    23    24    1
    12     2     3    1
    13     3     4    2
    14     4     5    1
    15     5     6    2
    16     6     7    1
    17     7     8    1
    18     8     9    1
    19     8    10    2
    20    10    11    1
    21    11    12    1
    22    11    13    2
    23    22    17    1
    24    13     3    1
    25    24    17    1
    26    13     6    1
    27     9    14    1
