@<TRIPOS>MOLECULE
*****
 29 32 0 0 0
SMALL
GASTEIGER

@<TRIPOS>ATOM
      1 C          63.5131   85.6040   12.9149 C.ar    1  UNL1       -0.0004
      2 C          64.2255   85.5424   14.2334 C.ar    1  UNL1       -0.0024
      3 C          64.6119   86.8095   14.9371 C.ar    1  UNL1       -0.0002
      4 C          64.2858   88.1382   14.3222 C.ar    1  UNL1        0.0030
      5 C          64.6722   89.4054   15.0259 C.ar    1  UNL1        0.0369
      6 C          64.3461   90.7341   14.4110 C.ar    1  UNL1        0.1386
      7 C          63.6336   90.7957   13.0924 C.ar    1  UNL1        0.0369
      8 C          63.2473   89.5286   12.3888 C.ar    1  UNL1        0.0031
      9 C          63.5734   88.1999   13.0037 C.ar    1  UNL1       -0.0001
     10 C          63.1870   86.9328   12.3000 C.ar    1  UNL1       -0.0024
     11 C          63.1267   84.3369   12.2112 C.3     1  UNL1        0.1240
     12 N          62.5905   83.1766   12.9962 N.ar    1  UNL1       -0.3045
     13 C          62.3333   81.7971   12.4663 C.ar    1  UNL1        0.0983
     14 C          61.8011   80.9601   13.5915 C.ar    1  UNL1        0.1193
     15 N          61.7294   81.8222   14.8169 N.ar    1  UNL1       -0.2223
     16 C          62.2172   83.1921   14.4489 C.ar    1  UNL1        0.1788
     17 C          64.2146   83.2183   10.1339 C.3     1  UNL1        0.0197
     18 C          63.2766   84.2301   10.7226 C.3     1  UNL1        0.0827
     19 N          62.4886   85.1350    9.8225 N.3     1  UNL1       -0.2696
     20 C          61.2092   85.7485   10.3096 C.3     1  UNL1        0.0897
     21 C          62.9797   85.4265    8.4355 C.3     1  UNL1        0.0897
     22 O          64.7324   92.0012   15.1147 O.3     1  UNL1       -0.4751
     23 C          65.7970   92.8857   14.5363 C.3     1  UNL1        0.2103
     24 C          67.2420   92.5073   14.6722 C.3     1  UNL1        0.0724
     25 C          68.5733   92.2315   15.3060 C.3     1  UNL1        0.0093
     26 C          67.4161   92.6715   16.1530 C.3     1  UNL1        0.0093
     27 C          67.5698   92.2116   13.2387 C.2     1  UNL1        0.0532
     28 O          66.5457   92.4540   12.1697 O.co2   1  UNL1       -0.5491
     29 O          68.9217   91.6736   12.8739 O.co2   1  UNL1       -0.5491
@<TRIPOS>UNITY_ATOM_ATTR
28 1
charge -1
@<TRIPOS>BOND
     1    18    17    1
     2    18    11    1
     3    11     1    1
     4     1     2   ar
     5     2     3   ar
     6     3     4   ar
     7     4     5   ar
     8     5     6   ar
     9     6    22    1
    10    22    23    1
    11    23    24    1
    12    24    27    1
    13    27    28   ar
    14    27    29   ar
    15    24    25    1
    16    25    26    1
    17     6     7   ar
    18     7     8   ar
    19     8     9   ar
    20     9    10   ar
    21    11    12    1
    22    12    13   ar
    23    13    14   ar
    24    14    15   ar
    25    15    16   ar
    26    18    19    1
    27    19    20    1
    28    19    21    1
    29    10     1   ar
    30    16    12   ar
    31     9     4   ar
    32    26    24    1
@<TRIPOS>MOLECULE
*****
 29 32 0 0 0
SMALL
GASTEIGER

@<TRIPOS>ATOM
      1 C          62.4427   88.2141   10.4148 C.ar    1  UNL1       -0.0004
      2 C          62.4938   89.6324    9.9296 C.ar    1  UNL1       -0.0024
      3 C          63.0390   90.7102   10.8190 C.ar    1  UNL1       -0.0002
      4 C          63.5331   90.3695   12.1937 C.ar    1  UNL1        0.0030
      5 C          64.0784   91.4474   13.0832 C.ar    1  UNL1        0.0369
      6 C          64.5725   91.1067   14.4579 C.ar    1  UNL1        0.1386
      7 C          64.5213   89.6883   14.9432 C.ar    1  UNL1        0.0369
      8 C          63.9761   88.6105   14.0537 C.ar    1  UNL1        0.0031
      9 C          63.4820   88.9512   12.6790 C.ar    1  UNL1       -0.0001
     10 C          62.9368   87.8734   11.7896 C.ar    1  UNL1       -0.0024
     11 C          61.8975   87.1362    9.5254 C.3     1  UNL1        0.1240
     12 N          60.6395   87.3739    8.7437 N.ar    1  UNL1       -0.3045
     13 C          60.1096   88.7086    8.3103 C.ar    1  UNL1        0.0983
     14 C          58.8332   88.4782    7.5569 C.ar    1  UNL1        0.1193
     15 N          58.5741   87.0011    7.5247 N.ar    1  UNL1       -0.2223
     16 C          59.6905   86.3186    8.2582 C.ar    1  UNL1        0.1788
     17 C          63.2505   85.4186    8.1221 C.3     1  UNL1        0.0197
     18 C          62.6102   85.8208    9.4176 C.3     1  UNL1        0.0827
     19 N          62.6826   84.9075   10.6054 N.3     1  UNL1       -0.2696
     20 C          63.6525   83.7632   10.6135 C.3     1  UNL1        0.0897
     21 C          61.7853   85.1385   11.7849 C.3     1  UNL1        0.0897
     22 O          65.1177   92.1845   15.3474 O.3     1  UNL1       -0.4751
     23 C          66.1599   93.1299   14.8278 C.3     1  UNL1        0.2103
     24 C          67.5936   92.6960   14.7489 C.3     1  UNL1        0.0724
     25 C          68.9726   92.3003   15.1866 C.3     1  UNL1        0.0093
     26 C          67.9341   92.6552   16.2092 C.3     1  UNL1        0.0093
     27 C          67.7511   92.5862   13.2613 C.2     1  UNL1        0.0532
     28 O          68.7465   91.6254   12.6813 O.co2   1  UNL1       -0.5491
     29 O          66.9132   93.4369   12.3535 O.co2   1  UNL1       -0.5491
@<TRIPOS>UNITY_ATOM_ATTR
28 1
charge -1
@<TRIPOS>BOND
     1    18    17    1
     2    18    11    1
     3    11     1    1
     4     1     2   ar
     5     2     3   ar
     6     3     4   ar
     7     4     5   ar
     8     5     6   ar
     9     6    22    1
    10    22    23    1
    11    23    24    1
    12    24    27    1
    13    27    28   ar
    14    27    29   ar
    15    24    25    1
    16    25    26    1
    17     6     7   ar
    18     7     8   ar
    19     8     9   ar
    20     9    10   ar
    21    11    12    1
    22    12    13   ar
    23    13    14   ar
    24    14    15   ar
    25    15    16   ar
    26    18    19    1
    27    19    20    1
    28    19    21    1
    29    10     1   ar
    30    16    12   ar
    31     9     4   ar
    32    26    24    1
@<TRIPOS>MOLECULE
*****
 29 32 0 0 0
SMALL
GASTEIGER

@<TRIPOS>ATOM
      1 C          62.5396   87.8169   10.7271 C.ar    1  UNL1       -0.0004
      2 C          62.5380   89.1652   10.0697 C.ar    1  UNL1       -0.0024
      3 C          63.0482   90.3632   10.8143 C.ar    1  UNL1       -0.0002
      4 C          63.5600   90.2129   12.2163 C.ar    1  UNL1        0.0030
      5 C          64.0702   91.4110   12.9609 C.ar    1  UNL1        0.0369
      6 C          64.5820   91.2607   14.3629 C.ar    1  UNL1        0.1386
      7 C          64.5836   89.9123   15.0202 C.ar    1  UNL1        0.0369
      8 C          64.0733   88.7144   14.2756 C.ar    1  UNL1        0.0031
      9 C          63.5616   88.8646   12.8737 C.ar    1  UNL1       -0.0001
     10 C          63.0514   87.6667   12.1291 C.ar    1  UNL1       -0.0024
     11 C          62.0294   86.6189    9.9825 C.3     1  UNL1        0.1240
     12 N          62.6031   85.2615   10.2625 N.ar    1  UNL1       -0.3045
     13 C          63.5170   84.4872    9.3596 C.ar    1  UNL1        0.0983
     14 C          63.8425   83.1873   10.0336 C.ar    1  UNL1        0.1193
     15 N          63.1296   83.1581   11.3531 N.ar    1  UNL1       -0.2223
     16 C          62.3637   84.4401   11.4945 C.ar    1  UNL1        0.1788
     17 C          60.8624   85.8283    7.8000 C.3     1  UNL1        0.0197
     18 C          60.9454   86.7782    8.9580 C.3     1  UNL1        0.0827
     19 N          59.9445   87.8874    9.0914 N.3     1  UNL1       -0.2696
     20 C          59.3861   88.2356   10.4393 C.3     1  UNL1        0.0897
     21 C          59.5020   88.6483    7.8769 C.3     1  UNL1        0.0897
     22 O          65.0922   92.4587   15.1075 O.3     1  UNL1       -0.4751
     23 C          66.2187   93.2707   14.5401 C.3     1  UNL1        0.2103
     24 C          67.6252   92.7542   14.6106 C.3     1  UNL1        0.0724
     25 C          68.9446   92.3321   15.1859 C.3     1  UNL1        0.0093
     26 C          67.8627   92.8465   16.0888 C.3     1  UNL1        0.0093
     27 C          67.8761   92.4826   13.1570 C.2     1  UNL1        0.0532
     28 O          68.9833   91.5572   12.7470 O.co2   1  UNL1       -0.5491
     29 O          67.0199   93.1362   12.1131 O.co2   1  UNL1       -0.5491
@<TRIPOS>UNITY_ATOM_ATTR
28 1
charge -1
@<TRIPOS>BOND
     1    18    17    1
     2    18    11    1
     3    11     1    1
     4     1     2   ar
     5     2     3   ar
     6     3     4   ar
     7     4     5   ar
     8     5     6   ar
     9     6    22    1
    10    22    23    1
    11    23    24    1
    12    24    27    1
    13    27    28   ar
    14    27    29   ar
    15    24    25    1
    16    25    26    1
    17     6     7   ar
    18     7     8   ar
    19     8     9   ar
    20     9    10   ar
    21    11    12    1
    22    12    13   ar
    23    13    14   ar
    24    14    15   ar
    25    15    16   ar
    26    18    19    1
    27    19    20    1
    28    19    21    1
    29    10     1   ar
    30    16    12   ar
    31     9     4   ar
    32    26    24    1
@<TRIPOS>MOLECULE
*****
 29 32 0 0 0
SMALL
GASTEIGER

@<TRIPOS>ATOM
      1 C          63.0634   85.2642   12.7899 C.ar    1  UNL1       -0.0004
      2 C          62.4312   85.9645   11.6238 C.ar    1  UNL1       -0.0024
      3 C          62.5309   87.4561   11.5009 C.ar    1  UNL1       -0.0002
      4 C          63.2628   88.2474   12.5440 C.ar    1  UNL1        0.0030
      5 C          63.3625   89.7390   12.4211 C.ar    1  UNL1        0.0369
      6 C          64.0945   90.5303   13.4642 C.ar    1  UNL1        0.1386
      7 C          64.7267   89.8299   14.6303 C.ar    1  UNL1        0.0369
      8 C          64.6270   88.3383   14.7532 C.ar    1  UNL1        0.0031
      9 C          63.8951   87.5470   13.7101 C.ar    1  UNL1       -0.0001
     10 C          63.7954   86.0554   13.8330 C.ar    1  UNL1       -0.0024
     11 C          62.9637   83.7725   12.9128 C.3     1  UNL1        0.1240
     12 N          63.3829   82.8961   11.7699 N.ar    1  UNL1       -0.3045
     13 C          62.6869   81.6478   11.3147 C.ar    1  UNL1        0.0983
     14 C          63.4455   81.0943   10.1450 C.ar    1  UNL1        0.1193
     15 N          64.6104   82.0005    9.8773 N.ar    1  UNL1       -0.2223
     16 C          64.5717   83.1141   10.8816 C.ar    1  UNL1        0.1788
     17 C          62.0455   84.0329   15.3292 C.3     1  UNL1        0.0197
     18 C          62.4449   83.1573   14.1786 C.3     1  UNL1        0.0827
     19 N          62.3255   81.6665   14.2939 N.3     1  UNL1       -0.2696
     20 C          63.5558   80.8272   14.4730 C.3     1  UNL1        0.0897
     21 C          60.9759   81.0150   14.2301 C.3     1  UNL1        0.0897
     22 O          64.1942   92.0219   13.3413 O.3     1  UNL1       -0.4751
     23 C          65.3959   92.6423   12.6924 C.3     1  UNL1        0.2103
     24 C          66.7025   92.6933   13.4272 C.3     1  UNL1        0.0724
     25 C          67.6829   92.8669   14.5491 C.3     1  UNL1        0.0093
     26 C          66.2167   93.0643   14.7970 C.3     1  UNL1        0.0093
     27 C          67.6421   92.3400   12.3126 C.2     1  UNL1        0.0532
     28 O          67.3439   92.7840   10.9111 O.co2   1  UNL1       -0.5491
     29 O          68.8799   91.5428   12.5993 O.co2   1  UNL1       -0.5491
@<TRIPOS>UNITY_ATOM_ATTR
28 1
charge -1
@<TRIPOS>BOND
     1    18    17    1
     2    18    11    1
     3    11     1    1
     4     1     2   ar
     5     2     3   ar
     6     3     4   ar
     7     4     5   ar
     8     5     6   ar
     9     6    22    1
    10    22    23    1
    11    23    24    1
    12    24    27    1
    13    27    28   ar
    14    27    29   ar
    15    24    25    1
    16    25    26    1
    17     6     7   ar
    18     7     8   ar
    19     8     9   ar
    20     9    10   ar
    21    11    12    1
    22    12    13   ar
    23    13    14   ar
    24    14    15   ar
    25    15    16   ar
    26    18    19    1
    27    19    20    1
    28    19    21    1
    29    10     1   ar
    30    16    12   ar
    31     9     4   ar
    32    26    24    1
@<TRIPOS>MOLECULE
*****
 29 32 0 0 0
SMALL
GASTEIGER

@<TRIPOS>ATOM
      1 C          62.6438   84.9397   11.4578 C.ar    1  UNL1       -0.0004
      2 C          62.9996   84.4463   10.0867 C.ar    1  UNL1       -0.0024
      3 C          62.3887   85.0886    8.8766 C.ar    1  UNL1       -0.0002
      4 C          61.4220   86.2242    9.0376 C.ar    1  UNL1        0.0030
      5 C          60.8111   86.8664    7.8274 C.ar    1  UNL1        0.0369
      6 C          59.8445   88.0020    7.9885 C.ar    1  UNL1        0.1386
      7 C          59.4887   88.4954    9.3596 C.ar    1  UNL1        0.0369
      8 C          60.0996   87.8532   10.5697 C.ar    1  UNL1        0.0031
      9 C          61.0662   86.7176   10.4087 C.ar    1  UNL1       -0.0001
     10 C          61.6771   86.0753   11.6188 C.ar    1  UNL1       -0.0024
     11 C          63.2546   84.2975   12.6679 C.3     1  UNL1        0.1240
     12 N          63.4795   85.1044   13.9123 N.ar    1  UNL1       -0.3045
     13 C          63.1481   84.6778   15.3116 C.ar    1  UNL1        0.0983
     14 C          63.5391   85.7893   16.2399 C.ar    1  UNL1        0.1193
     15 N          64.1121   86.9028   15.4143 N.ar    1  UNL1       -0.2223
     16 C          64.0753   86.4795   13.9757 C.ar    1  UNL1        0.1788
     17 C          65.0061   82.4469   12.1602 C.3     1  UNL1        0.0197
     18 C          63.6406   82.8484   12.6337 C.3     1  UNL1        0.0827
     19 N          62.6611   81.8008   13.0730 N.3     1  UNL1       -0.2696
     20 C          61.7359   82.0737   14.2218 C.3     1  UNL1        0.0897
     21 C          62.6067   80.4803   12.3636 C.3     1  UNL1        0.0897
     22 O          59.2336   88.6443    6.7784 O.3     1  UNL1       -0.4751
     23 C          59.6232   90.0407    6.3931 C.3     1  UNL1        0.2103
     24 C          58.7323   90.8472    5.4955 C.3     1  UNL1        0.0724
     25 C          57.4848   91.3620    4.8408 C.3     1  UNL1        0.0093
     26 C          57.3960   90.2869    5.8832 C.3     1  UNL1        0.0093
     27 C          59.7592   91.6876    4.7962 C.2     1  UNL1        0.0532
     28 O          61.1745   91.2034    4.6837 O.co2   1  UNL1       -0.5491
     29 O          59.3710   93.0123    4.2092 O.co2   1  UNL1       -0.5491
@<TRIPOS>UNITY_ATOM_ATTR
28 1
charge -1
@<TRIPOS>BOND
     1    18    17    1
     2    18    11    1
     3    11     1    1
     4     1     2   ar
     5     2     3   ar
     6     3     4   ar
     7     4     5   ar
     8     5     6   ar
     9     6    22    1
    10    22    23    1
    11    23    24    1
    12    24    27    1
    13    27    28   ar
    14    27    29   ar
    15    24    25    1
    16    25    26    1
    17     6     7   ar
    18     7     8   ar
    19     8     9   ar
    20     9    10   ar
    21    11    12    1
    22    12    13   ar
    23    13    14   ar
    24    14    15   ar
    25    15    16   ar
    26    18    19    1
    27    19    20    1
    28    19    21    1
    29    10     1   ar
    30    16    12   ar
    31     9     4   ar
    32    26    24    1
@<TRIPOS>MOLECULE
*****
 29 32 0 0 0
SMALL
GASTEIGER

@<TRIPOS>ATOM
      1 C          63.2084   88.5094   12.2762 C.ar    1  UNL1       -0.0004
      2 C          62.5563   87.5242   11.3521 C.ar    1  UNL1       -0.0024
      3 C          62.5837   86.0599   11.6764 C.ar    1  UNL1       -0.0002
      4 C          63.2633   85.5809   12.9249 C.ar    1  UNL1        0.0030
      5 C          63.2908   84.1166   13.2492 C.ar    1  UNL1        0.0369
      6 C          63.9704   83.6376   14.4977 C.ar    1  UNL1        0.1386
      7 C          64.6226   84.6229   15.4218 C.ar    1  UNL1        0.0369
      8 C          64.5951   86.0871   15.0974 C.ar    1  UNL1        0.0031
      9 C          63.9155   86.5661   13.8490 C.ar    1  UNL1       -0.0001
     10 C          63.8881   88.0303   13.5246 C.ar    1  UNL1       -0.0024
     11 C          63.1810   89.9737   11.9519 C.3     1  UNL1        0.1240
     12 N          64.0259   90.9319   12.7379 N.ar    1  UNL1       -0.3045
     13 C          65.0490   91.8728   12.1739 C.ar    1  UNL1        0.0983
     14 C          65.6515   92.6398   13.3135 C.ar    1  UNL1        0.1193
     15 N          65.0008   92.1731   14.5818 N.ar    1  UNL1       -0.2223
     16 C          63.9962   91.1175   14.2261 C.ar    1  UNL1        0.1788
     17 C          62.8817   91.3827    9.7897 C.3     1  UNL1        0.0197
     18 C          62.3087   90.4797   10.8415 C.3     1  UNL1        0.0827
     19 N          60.8633   90.0827   10.7829 N.3     1  UNL1       -0.2696
     20 C          60.2760   89.5768    9.4987 C.3     1  UNL1        0.0897
     21 C          60.0053   90.1917   12.0084 C.3     1  UNL1        0.0897
     22 O          63.9979   82.1734   14.8220 O.3     1  UNL1       -0.4751
     23 C          63.8498   81.1595   13.7264 C.3     1  UNL1        0.2103
     24 C          62.4850   80.7906   13.2253 C.3     1  UNL1        0.0724
     25 C          61.0071   80.5346   13.2200 C.3     1  UNL1        0.0093
     26 C          61.6853   80.9875   14.4790 C.3     1  UNL1        0.0093
     27 C          62.8107   80.4657   11.7976 C.2     1  UNL1        0.0532
     28 O          63.2616   81.5511   10.8654 O.co2   1  UNL1       -0.5491
     29 O          62.6857   79.0555   11.3020 O.co2   1  UNL1       -0.5491
@<TRIPOS>UNITY_ATOM_ATTR
28 1
charge -1
@<TRIPOS>BOND
     1    18    17    1
     2    18    11    1
     3    11     1    1
     4     1     2   ar
     5     2     3   ar
     6     3     4   ar
     7     4     5   ar
     8     5     6   ar
     9     6    22    1
    10    22    23    1
    11    23    24    1
    12    24    27    1
    13    27    28   ar
    14    27    29   ar
    15    24    25    1
    16    25    26    1
    17     6     7   ar
    18     7     8   ar
    19     8     9   ar
    20     9    10   ar
    21    11    12    1
    22    12    13   ar
    23    13    14   ar
    24    14    15   ar
    25    15    16   ar
    26    18    19    1
    27    19    20    1
    28    19    21    1
    29    10     1   ar
    30    16    12   ar
    31     9     4   ar
    32    26    24    1
@<TRIPOS>MOLECULE
*****
 29 32 0 0 0
SMALL
GASTEIGER

@<TRIPOS>ATOM
      1 C          61.3845   93.2009    2.1584 C.ar    1  UNL1       -0.0004
      2 C          62.5023   92.3425    2.6718 C.ar    1  UNL1       -0.0024
      3 C          62.2464   91.3583    3.7744 C.ar    1  UNL1       -0.0002
      4 C          60.8728   91.2324    4.3636 C.ar    1  UNL1        0.0030
      5 C          60.6170   90.2481    5.4663 C.ar    1  UNL1        0.0369
      6 C          59.2433   90.1223    6.0555 C.ar    1  UNL1        0.1386
      7 C          58.1255   90.9808    5.5421 C.ar    1  UNL1        0.0369
      8 C          58.3813   91.9650    4.4396 C.ar    1  UNL1        0.0031
      9 C          59.7550   92.0908    3.8503 C.ar    1  UNL1       -0.0001
     10 C          60.0108   93.0751    2.7477 C.ar    1  UNL1       -0.0024
     11 C          61.6403   94.1852    1.0558 C.3     1  UNL1        0.1240
     12 N          63.0035   94.7889    0.8906 N.ar    1  UNL1       -0.3045
     13 C          63.5373   95.9776    1.6336 C.ar    1  UNL1        0.0983
     14 C          64.9359   96.2332    1.1557 C.ar    1  UNL1        0.1193
     15 N          65.2666   95.2024    0.1174 N.ar    1  UNL1       -0.2223
     16 C          64.0723   94.3098   -0.0464 C.ar    1  UNL1        0.1788
     17 C          59.7475   95.8216    0.3558 C.3     1  UNL1        0.0197
     18 C          60.5329   94.5658    0.1183 C.3     1  UNL1        0.0827
     19 N          60.2109   93.6907   -1.0566 N.3     1  UNL1       -0.2696
     20 C          60.9625   93.8571   -2.3440 C.3     1  UNL1        0.0897
     21 C          59.1372   92.6493   -0.9441 C.3     1  UNL1        0.0897
     22 O          58.9875   89.1380    7.1581 O.3     1  UNL1       -0.4751
     23 C          59.9220   89.0640    8.3292 C.3     1  UNL1        0.2103
     24 C          60.3535   87.7295    8.8611 C.3     1  UNL1        0.0724
     25 C          60.5370   86.2441    8.9605 C.3     1  UNL1        0.0093
     26 C          59.7892   86.8315    7.8004 C.3     1  UNL1        0.0093
     27 C          61.0676   88.1641   10.1065 C.2     1  UNL1        0.0532
     28 O          62.3993   88.8476   10.0078 O.co2   1  UNL1       -0.5491
     29 O          60.4502   87.9153   11.4507 O.co2   1  UNL1       -0.5491
@<TRIPOS>UNITY_ATOM_ATTR
28 1
charge -1
@<TRIPOS>BOND
     1    18    17    1
     2    18    11    1
     3    11     1    1
     4     1     2   ar
     5     2     3   ar
     6     3     4   ar
     7     4     5   ar
     8     5     6   ar
     9     6    22    1
    10    22    23    1
    11    23    24    1
    12    24    27    1
    13    27    28   ar
    14    27    29   ar
    15    24    25    1
    16    25    26    1
    17     6     7   ar
    18     7     8   ar
    19     8     9   ar
    20     9    10   ar
    21    11    12    1
    22    12    13   ar
    23    13    14   ar
    24    14    15   ar
    25    15    16   ar
    26    18    19    1
    27    19    20    1
    28    19    21    1
    29    10     1   ar
    30    16    12   ar
    31     9     4   ar
    32    26    24    1
@<TRIPOS>MOLECULE
*****
 29 32 0 0 0
SMALL
GASTEIGER

@<TRIPOS>ATOM
      1 C          61.5163   93.3123    2.2041 C.ar    1  UNL1       -0.0004
      2 C          62.6004   92.3788    2.6549 C.ar    1  UNL1       -0.0024
      3 C          62.3137   91.3487    3.7068 C.ar    1  UNL1       -0.0002
      4 C          60.9428   91.2519    4.3078 C.ar    1  UNL1        0.0030
      5 C          60.6560   90.2217    5.3598 C.ar    1  UNL1        0.0369
      6 C          59.2851   90.1250    5.9608 C.ar    1  UNL1        0.1386
      7 C          58.2010   91.0584    5.5099 C.ar    1  UNL1        0.0369
      8 C          58.4877   92.0886    4.4580 C.ar    1  UNL1        0.0031
      9 C          59.8586   92.1854    3.8570 C.ar    1  UNL1       -0.0001
     10 C          60.1454   93.2155    2.8051 C.ar    1  UNL1       -0.0024
     11 C          61.8030   94.3425    1.1522 C.3     1  UNL1        0.1240
     12 N          61.1811   94.2195   -0.2073 N.ar    1  UNL1       -0.3045
     13 C          61.7925   93.5436   -1.3986 C.ar    1  UNL1        0.0983
     14 C          60.8279   93.6571   -2.5417 C.ar    1  UNL1        0.1193
     15 N          59.6204   94.4033   -2.0569 N.ar    1  UNL1       -0.2223
     16 C          59.8387   94.7508   -0.6141 C.ar    1  UNL1        0.1788
     17 C          62.1353   96.8559    1.7203 C.3     1  UNL1        0.0197
     18 C          62.7116   95.4957    1.4597 C.3     1  UNL1        0.0827
     19 N          64.1965   95.2887    1.5068 N.3     1  UNL1       -0.2696
     20 C          64.8738   94.4712    0.4470 C.3     1  UNL1        0.0897
     21 C          65.0042   95.8993    2.6135 C.3     1  UNL1        0.0897
     22 O          58.9984   89.0948    7.0127 O.3     1  UNL1       -0.4751
     23 C          59.8322   89.0427    8.2585 C.3     1  UNL1        0.2103
     24 C          60.2930   87.7211    8.7979 C.3     1  UNL1        0.0724
     25 C          60.5073   86.2405    8.9068 C.3     1  UNL1        0.0093
     26 C          59.7430   86.8043    7.7457 C.3     1  UNL1        0.0093
     27 C          61.0031   88.1789   10.0373 C.2     1  UNL1        0.0532
     28 O          62.3970   88.7255    9.9446 O.co2   1  UNL1       -0.5491
     29 O          60.3195   88.0901   11.3695 O.co2   1  UNL1       -0.5491
@<TRIPOS>UNITY_ATOM_ATTR
28 1
charge -1
@<TRIPOS>BOND
     1    18    17    1
     2    18    11    1
     3    11     1    1
     4     1     2   ar
     5     2     3   ar
     6     3     4   ar
     7     4     5   ar
     8     5     6   ar
     9     6    22    1
    10    22    23    1
    11    23    24    1
    12    24    27    1
    13    27    28   ar
    14    27    29   ar
    15    24    25    1
    16    25    26    1
    17     6     7   ar
    18     7     8   ar
    19     8     9   ar
    20     9    10   ar
    21    11    12    1
    22    12    13   ar
    23    13    14   ar
    24    14    15   ar
    25    15    16   ar
    26    18    19    1
    27    19    20    1
    28    19    21    1
    29    10     1   ar
    30    16    12   ar
    31     9     4   ar
    32    26    24    1
@<TRIPOS>MOLECULE
*****
 29 32 0 0 0
SMALL
GASTEIGER

@<TRIPOS>ATOM
      1 C          62.6669   84.8513   11.5357 C.ar    1  UNL1       -0.0004
      2 C          63.1636   84.4415   10.1810 C.ar    1  UNL1       -0.0024
      3 C          62.6188   85.1040    8.9505 C.ar    1  UNL1       -0.0002
      4 C          61.5773   86.1763    9.0747 C.ar    1  UNL1        0.0030
      5 C          61.0325   86.8388    7.8440 C.ar    1  UNL1        0.0369
      6 C          59.9911   87.9112    7.9682 C.ar    1  UNL1        0.1386
      7 C          59.4944   88.3210    9.3230 C.ar    1  UNL1        0.0369
      8 C          60.0392   87.6585   10.5536 C.ar    1  UNL1        0.0031
      9 C          61.0806   86.5862   10.4294 C.ar    1  UNL1       -0.0001
     10 C          61.6254   85.9237   11.6599 C.ar    1  UNL1       -0.0024
     11 C          63.2117   84.1888   12.7664 C.3     1  UNL1        0.1240
     12 N          62.7712   82.8015   13.1287 N.ar    1  UNL1       -0.3045
     13 C          61.8758   82.4316   14.2739 C.ar    1  UNL1        0.0983
     14 C          61.6999   80.9419   14.2624 C.ar    1  UNL1        0.1193
     15 N          62.4866   80.3912   13.1101 N.ar    1  UNL1       -0.2223
     16 C          63.1486   81.5405   12.4094 C.ar    1  UNL1        0.1788
     17 C          65.6165   84.4360   13.7182 C.3     1  UNL1        0.0197
     18 C          64.1969   84.9136   13.6346 C.3     1  UNL1        0.0827
     19 N          63.7627   86.1160   14.4192 N.3     1  UNL1       -0.2696
     20 C          63.2121   85.9488   15.8045 C.3     1  UNL1        0.0897
     21 C          63.8792   87.4856   13.8187 C.3     1  UNL1        0.0897
     22 O          59.4463   88.5737    6.7377 O.3     1  UNL1       -0.4751
     23 C          59.7627   90.0131    6.4583 C.3     1  UNL1        0.2103
     24 C          58.8656   90.8187    5.5660 C.3     1  UNL1        0.0724
     25 C          57.6126   91.3425    4.9292 C.3     1  UNL1        0.0093
     26 C          57.5292   90.2869    5.9917 C.3     1  UNL1        0.0093
     27 C          59.8904   91.6302    4.8304 C.2     1  UNL1        0.0532
     28 O          59.4840   92.8898    4.1244 O.co2   1  UNL1       -0.5491
     29 O          61.3217   91.1823    4.8008 O.co2   1  UNL1       -0.5491
@<TRIPOS>UNITY_ATOM_ATTR
28 1
charge -1
@<TRIPOS>BOND
     1    18    17    1
     2    18    11    1
     3    11     1    1
     4     1     2   ar
     5     2     3   ar
     6     3     4   ar
     7     4     5   ar
     8     5     6   ar
     9     6    22    1
    10    22    23    1
    11    23    24    1
    12    24    27    1
    13    27    28   ar
    14    27    29   ar
    15    24    25    1
    16    25    26    1
    17     6     7   ar
    18     7     8   ar
    19     8     9   ar
    20     9    10   ar
    21    11    12    1
    22    12    13   ar
    23    13    14   ar
    24    14    15   ar
    25    15    16   ar
    26    18    19    1
    27    19    20    1
    28    19    21    1
    29    10     1   ar
    30    16    12   ar
    31     9     4   ar
    32    26    24    1
