@<TRIPOS>MOLECULE
*****
 36 39 0 0 0
SMALL
GASTEIGER

@<TRIPOS>ATOM
      1 C          63.5355   84.9439   13.0836 C.ar    1  UNL1        0.0012
      2 C          64.2505   85.1748   14.3818 C.ar    1  UNL1        0.0000
      3 C          64.4738   86.5731   14.8767 C.ar    1  UNL1       -0.0002
      4 C          63.9822   87.7405   14.0733 C.ar    1  UNL1        0.0005
      5 C          63.2672   87.5095   12.7751 C.ar    1  UNL1       -0.0022
      6 C          63.0439   86.1113   12.2802 C.ar    1  UNL1       -0.0026
      7 C          62.8655   80.7490   11.5990 C.ar    1  UNL1        0.2249
      8 C          63.5157   81.7652   10.7076 C.ar    1  UNL1        0.0577
      9 C          63.7390   83.1634   11.2024 C.ar    1  UNL1        0.0063
     10 C          63.3122   83.5456   12.5887 C.ar    1  UNL1        0.0194
     11 C          62.6620   82.5294   13.4801 C.ar    1  UNL1        0.1020
     12 N          62.4387   81.1311   12.9852 N.ar    1  UNL1       -0.2101
     13 O          62.6422   79.3507   11.1041 O.3     1  UNL1       -0.4602
     14 C          63.8037   78.0421    9.1835 C.3     1  UNL1        0.0512
     15 C          62.7831   79.0406    9.6433 C.3     1  UNL1        0.2072
     16 C          64.2055   89.1388   14.5682 C.ar    1  UNL1        0.0334
     17 C          65.1965   90.0290   13.8788 C.ar    1  UNL1       -0.0009
     18 C          65.4199   91.4273   14.3737 C.ar    1  UNL1       -0.0164
     19 C          64.6522   91.9353   15.5579 C.ar    1  UNL1       -0.0008
     20 C          63.6611   91.0451   16.2473 C.ar    1  UNL1        0.0366
     21 C          63.4378   89.6468   15.7524 C.ar    1  UNL1        0.1386
     22 O          62.4467   88.7566   16.4418 O.3     1  UNL1       -0.4714
     23 C          62.8948   87.8553   17.5540 C.3     1  UNL1        0.2525
     24 C          66.4110   92.3175   13.6842 C.3     1  UNL1        0.0679
     25 C          67.8816   92.0849   13.8660 C.2     1  UNL1        0.0547
     26 O          68.5016   92.2298   15.2242 O.co2   1  UNL1       -0.5488
     27 O          68.7323   91.7073   12.6896 O.co2   1  UNL1       -0.5488
     28 C          62.7755   88.6770   11.9716 C.3     1  UNL1        0.1201
     29 N          61.5519   88.5362   11.1156 N.am    1  UNL1       -0.2754
     30 C          61.6506   87.8865    9.7672 C.2     1  UNL1        0.2254
     31 O          62.9729   87.3776    9.2748 O.2     1  UNL1       -0.2749
     32 C          60.4269   87.7457    8.9111 C.3     1  UNL1        0.0767
     33 C          59.3342   86.8934    8.3371 C.3     1  UNL1        0.0096
     34 C          59.4002   88.3540    8.0024 C.3     1  UNL1        0.0096
     35 C          60.2295   89.0451   11.6079 C.3     1  UNL1        0.0938
     36 C          59.8114   90.4550   11.3127 C.3     1  UNL1        0.0233
@<TRIPOS>UNITY_ATOM_ATTR
27 1
charge -1
@<TRIPOS>BOND
     1    14    15    1
     2    15    13    1
     3    13     7    1
     4     7     8   ar
     5     8     9   ar
     6     9    10   ar
     7    10     1    1
     8     1     2   ar
     9     2     3   ar
    10     3     4   ar
    11     4    16    1
    12    16    17   ar
    13    17    18   ar
    14    18    24    1
    15    24    25    1
    16    25    26   ar
    17    25    27   ar
    18    18    19   ar
    19    19    20   ar
    20    20    21   ar
    21    21    22    1
    22    22    23    1
    23     4     5   ar
    24     5    28    1
    25    28    29    1
    26    29    35    1
    27    35    36    1
    28    29    30   am
    29    30    31    2
    30    30    32    1
    31    32    33    1
    32    33    34    1
    33     5     6   ar
    34    10    11   ar
    35    11    12   ar
    36    12     7   ar
    37     6     1   ar
    38    21    16   ar
    39    34    32    1
@<TRIPOS>MOLECULE
*****
 36 39 0 0 0
SMALL
GASTEIGER

@<TRIPOS>ATOM
      1 C          64.3077   90.8218   12.3979 C.ar    1  UNL1        0.0012
      2 C          64.0568   91.2294   10.9763 C.ar    1  UNL1        0.0000
      3 C          63.2103   90.3675   10.0872 C.ar    1  UNL1       -0.0002
      4 C          62.6148   89.0979   10.6195 C.ar    1  UNL1        0.0005
      5 C          62.8657   88.6903   12.0411 C.ar    1  UNL1       -0.0022
      6 C          63.7121   89.5522   12.9302 C.ar    1  UNL1       -0.0026
      7 C          66.8469   93.4077   15.0653 C.ar    1  UNL1        0.2249
      8 C          66.0086   92.3142   15.6581 C.ar    1  UNL1        0.0577
      9 C          65.1622   91.4523   14.7690 C.ar    1  UNL1        0.0063
     10 C          65.1541   91.6838   13.2870 C.ar    1  UNL1        0.0194
     11 C          65.9924   92.7772   12.6942 C.ar    1  UNL1        0.1020
     12 N          66.8389   93.6392   13.5833 N.ar    1  UNL1       -0.2101
     13 O          67.6934   94.2696   15.9545 O.3     1  UNL1       -0.4602
     14 C          69.6086   92.5248   16.1477 C.3     1  UNL1        0.0512
     15 C          69.1470   93.9520   16.1438 C.3     1  UNL1        0.2072
     16 C          61.7684   88.2359    9.7304 C.ar    1  UNL1        0.0334
     17 C          62.3368   86.9780    9.1435 C.ar    1  UNL1       -0.0009
     18 C          61.4904   86.1161    8.2543 C.ar    1  UNL1       -0.0164
     19 C          60.0755   86.5120    7.9521 C.ar    1  UNL1       -0.0008
     20 C          59.5071   87.7699    8.5390 C.ar    1  UNL1        0.0366
     21 C          60.3535   88.6319    9.4282 C.ar    1  UNL1        0.1386
     22 O          59.7851   89.8899   10.0151 O.3     1  UNL1       -0.4714
     23 C          59.4428   89.9487   11.4743 C.3     1  UNL1        0.2525
     24 C          62.0589   84.8581    7.6674 C.3     1  UNL1        0.0679
     25 C          61.8526   84.5485    6.2143 C.2     1  UNL1        0.0547
     26 O          60.5736   83.9117    5.7573 O.co2   1  UNL1       -0.5488
     27 O          62.9252   84.8757    5.2180 O.co2   1  UNL1       -0.5488
     28 C          62.2702   87.4206   12.5736 C.3     1  UNL1        0.1201
     29 N          63.1490   86.2352   12.8427 N.am    1  UNL1       -0.2754
     30 C          62.8769   84.9289   12.1575 C.2     1  UNL1        0.2254
     31 O          61.7261   84.8080   11.2031 O.2     1  UNL1       -0.2749
     32 C          63.7558   83.7435   12.4268 C.3     1  UNL1        0.0767
     33 C          64.3278   82.7415   13.3853 C.3     1  UNL1        0.0096
     34 C          64.7059   82.6922   11.9346 C.3     1  UNL1        0.0096
     35 C          64.2999   86.3561   13.7972 C.3     1  UNL1        0.0938
     36 C          64.0853   86.1260   15.2638 C.3     1  UNL1        0.0233
@<TRIPOS>UNITY_ATOM_ATTR
27 1
charge -1
@<TRIPOS>BOND
     1    14    15    1
     2    15    13    1
     3    13     7    1
     4     7     8   ar
     5     8     9   ar
     6     9    10   ar
     7    10     1    1
     8     1     2   ar
     9     2     3   ar
    10     3     4   ar
    11     4    16    1
    12    16    17   ar
    13    17    18   ar
    14    18    24    1
    15    24    25    1
    16    25    26   ar
    17    25    27   ar
    18    18    19   ar
    19    19    20   ar
    20    20    21   ar
    21    21    22    1
    22    22    23    1
    23     4     5   ar
    24     5    28    1
    25    28    29    1
    26    29    35    1
    27    35    36    1
    28    29    30   am
    29    30    31    2
    30    30    32    1
    31    32    33    1
    32    33    34    1
    33     5     6   ar
    34    10    11   ar
    35    11    12   ar
    36    12     7   ar
    37     6     1   ar
    38    21    16   ar
    39    34    32    1
@<TRIPOS>MOLECULE
*****
 36 39 0 0 0
SMALL
GASTEIGER

@<TRIPOS>ATOM
      1 C          63.5795   84.7352   13.2434 C.ar    1  UNL1        0.0012
      2 C          64.3168   85.0027   14.5220 C.ar    1  UNL1        0.0000
      3 C          64.5411   86.4142   14.9773 C.ar    1  UNL1       -0.0002
      4 C          64.0282   87.5583   14.1539 C.ar    1  UNL1        0.0005
      5 C          63.2909   87.2908   12.8753 C.ar    1  UNL1       -0.0022
      6 C          63.0666   85.8793   12.4201 C.ar    1  UNL1       -0.0026
      7 C          62.9065   80.5006   11.8776 C.ar    1  UNL1        0.2249
      8 C          62.6616   80.8748   13.3093 C.ar    1  UNL1        0.0577
      9 C          62.8859   82.2863   13.7646 C.ar    1  UNL1        0.0063
     10 C          63.3552   83.3237   12.7881 C.ar    1  UNL1        0.0194
     11 C          63.6002   82.9495   11.3564 C.ar    1  UNL1        0.1020
     12 N          63.3758   81.5380   10.9011 N.ar    1  UNL1       -0.2101
     13 O          62.6822   79.0891   11.4223 O.3     1  UNL1       -0.4602
     14 C          63.7179   78.0507    9.2778 C.3     1  UNL1        0.0512
     15 C          62.5960   78.7783    9.9574 C.3     1  UNL1        0.2072
     16 C          64.2525   88.9698   14.6092 C.ar    1  UNL1        0.0334
     17 C          65.2816   89.8228   13.9286 C.ar    1  UNL1       -0.0009
     18 C          65.5060   91.2343   14.3838 C.ar    1  UNL1       -0.0164
     19 C          64.7012   91.7928   15.5198 C.ar    1  UNL1       -0.0008
     20 C          63.6721   90.9398   16.2004 C.ar    1  UNL1        0.0366
     21 C          63.4478   89.5283   15.7451 C.ar    1  UNL1        0.1386
     22 O          62.4186   88.6753   16.4258 O.3     1  UNL1       -0.4714
     23 C          62.8180   87.7815   17.5623 C.3     1  UNL1        0.2525
     24 C          66.5351   92.0873   13.7031 C.3     1  UNL1        0.0679
     25 C          66.1436   92.9513   12.5412 C.2     1  UNL1        0.0547
     26 O          65.4653   92.3434   11.3494 O.co2   1  UNL1       -0.5488
     27 O          66.4303   94.4234   12.5710 O.co2   1  UNL1       -0.5488
     28 C          62.7780   88.4350   12.0519 C.3     1  UNL1        0.1201
     29 N          61.9465   88.1678   10.8324 N.am    1  UNL1       -0.2754
     30 C          61.1697   89.2818   10.1955 C.2     1  UNL1        0.2254
     31 O          61.2243   90.6629   10.7781 O.2     1  UNL1       -0.2749
     32 C          60.3382   89.0146    8.9759 C.3     1  UNL1        0.0767
     33 C          59.3633   88.1508    8.2321 C.3     1  UNL1        0.0096
     34 C          59.8730   89.4156    7.6074 C.3     1  UNL1        0.0096
     35 C          61.8919   86.7866   10.2497 C.3     1  UNL1        0.0938
     36 C          62.6070   86.4853    8.9661 C.3     1  UNL1        0.0233
@<TRIPOS>UNITY_ATOM_ATTR
27 1
charge -1
@<TRIPOS>BOND
     1    14    15    1
     2    15    13    1
     3    13     7    1
     4     7     8   ar
     5     8     9   ar
     6     9    10   ar
     7    10     1    1
     8     1     2   ar
     9     2     3   ar
    10     3     4   ar
    11     4    16    1
    12    16    17   ar
    13    17    18   ar
    14    18    24    1
    15    24    25    1
    16    25    26   ar
    17    25    27   ar
    18    18    19   ar
    19    19    20   ar
    20    20    21   ar
    21    21    22    1
    22    22    23    1
    23     4     5   ar
    24     5    28    1
    25    28    29    1
    26    29    35    1
    27    35    36    1
    28    29    30   am
    29    30    31    2
    30    30    32    1
    31    32    33    1
    32    33    34    1
    33     5     6   ar
    34    10    11   ar
    35    11    12   ar
    36    12     7   ar
    37     6     1   ar
    38    21    16   ar
    39    34    32    1
@<TRIPOS>MOLECULE
*****
 36 39 0 0 0
SMALL
GASTEIGER

@<TRIPOS>ATOM
      1 C          63.5406   84.6773   13.5640 C.ar    1  UNL1        0.0012
      2 C          63.9837   84.9581   14.9693 C.ar    1  UNL1        0.0000
      3 C          64.2457   86.3692   15.4053 C.ar    1  UNL1       -0.0002
      4 C          64.0647   87.4995   14.4360 C.ar    1  UNL1        0.0005
      5 C          63.6216   87.2188   13.0307 C.ar    1  UNL1       -0.0022
      6 C          63.3596   85.8076   12.5947 C.ar    1  UNL1       -0.0026
      7 C          62.7545   80.4440   12.2560 C.ar    1  UNL1        0.2249
      8 C          62.5940   80.8256   13.6977 C.ar    1  UNL1        0.0577
      9 C          62.8560   82.2367   14.1337 C.ar    1  UNL1        0.0063
     10 C          63.2786   83.2662   13.1280 C.ar    1  UNL1        0.0194
     11 C          63.4391   82.8846   11.6863 C.ar    1  UNL1        0.1020
     12 N          63.1770   81.4735   11.2503 N.ar    1  UNL1       -0.2101
     13 O          62.4924   79.0329   11.8200 O.3     1  UNL1       -0.4602
     14 C          63.1902   77.1941   10.1223 C.3     1  UNL1        0.0512
     15 C          62.8004   78.6131   10.4133 C.3     1  UNL1        0.2072
     16 C          64.3267   88.9106   14.8720 C.ar    1  UNL1        0.0334
     17 C          65.4778   89.6746   14.2879 C.ar    1  UNL1       -0.0009
     18 C          65.7399   91.0857   14.7239 C.ar    1  UNL1       -0.0164
     19 C          64.8508   91.7329   15.7440 C.ar    1  UNL1       -0.0008
     20 C          63.6997   90.9689   16.3281 C.ar    1  UNL1        0.0366
     21 C          63.4376   89.5578   15.8921 C.ar    1  UNL1        0.1386
     22 O          62.2864   88.7938   16.4763 O.3     1  UNL1       -0.4714
     23 C          62.5298   87.7767   17.5515 C.3     1  UNL1        0.2525
     24 C          66.8911   91.8497   14.1397 C.3     1  UNL1        0.0679
     25 C          67.0638   93.3053   14.4579 C.2     1  UNL1        0.0547
     26 O          66.2039   94.3289   13.7776 O.co2   1  UNL1       -0.5488
     27 O          68.0965   93.7374   15.4564 O.co2   1  UNL1       -0.5488
     28 C          63.4406   88.3491   12.0614 C.3     1  UNL1        0.1201
     29 N          62.2157   89.2118   12.1355 N.am    1  UNL1       -0.2754
     30 C          60.8710   88.6350   11.8056 C.2     1  UNL1        0.2254
     31 O          60.7510   87.1955   11.4014 O.2     1  UNL1       -0.2749
     32 C          59.6461   89.4978   11.8797 C.3     1  UNL1        0.0767
     33 C          58.9504   90.7938   11.5862 C.3     1  UNL1        0.0096
     34 C          58.2204   89.6961   12.3017 C.3     1  UNL1        0.0096
     35 C          62.3356   90.6514   12.5397 C.3     1  UNL1        0.0938
     36 C          63.4708   91.4838   12.0216 C.3     1  UNL1        0.0233
@<TRIPOS>UNITY_ATOM_ATTR
27 1
charge -1
@<TRIPOS>BOND
     1    14    15    1
     2    15    13    1
     3    13     7    1
     4     7     8   ar
     5     8     9   ar
     6     9    10   ar
     7    10     1    1
     8     1     2   ar
     9     2     3   ar
    10     3     4   ar
    11     4    16    1
    12    16    17   ar
    13    17    18   ar
    14    18    24    1
    15    24    25    1
    16    25    26   ar
    17    25    27   ar
    18    18    19   ar
    19    19    20   ar
    20    20    21   ar
    21    21    22    1
    22    22    23    1
    23     4     5   ar
    24     5    28    1
    25    28    29    1
    26    29    35    1
    27    35    36    1
    28    29    30   am
    29    30    31    2
    30    30    32    1
    31    32    33    1
    32    33    34    1
    33     5     6   ar
    34    10    11   ar
    35    11    12   ar
    36    12     7   ar
    37     6     1   ar
    38    21    16   ar
    39    34    32    1
@<TRIPOS>MOLECULE
*****
 36 39 0 0 0
SMALL
GASTEIGER

@<TRIPOS>ATOM
      1 C          62.5288   88.1978   11.0011 C.ar    1  UNL1        0.0012
      2 C          62.4508   89.6939   10.9271 C.ar    1  UNL1        0.0000
      3 C          63.0410   90.5309   12.0230 C.ar    1  UNL1       -0.0002
      4 C          63.7092   89.8717   13.1930 C.ar    1  UNL1        0.0005
      5 C          63.7872   88.3756   13.2670 C.ar    1  UNL1       -0.0022
      6 C          63.1970   87.5387   12.1711 C.ar    1  UNL1       -0.0026
      7 C          60.7581   85.6870    7.7132 C.ar    1  UNL1        0.2249
      8 C          62.1902   85.4943    8.1156 C.ar    1  UNL1        0.0577
      9 C          62.7804   86.3313    9.2115 C.ar    1  UNL1        0.0063
     10 C          61.9385   87.3609    9.9051 C.ar    1  UNL1        0.0194
     11 C          60.5064   87.5536    9.5027 C.ar    1  UNL1        0.1020
     12 N          59.9162   86.7166    8.4068 N.ar    1  UNL1       -0.2101
     13 O          60.1678   84.8500    6.6172 O.3     1  UNL1       -0.4602
     14 C          62.0817   84.3427    4.9351 C.3     1  UNL1        0.0512
     15 C          61.0250   83.8610    5.8844 C.3     1  UNL1        0.2072
     16 C          64.2995   90.7087   14.2890 C.ar    1  UNL1        0.0334
     17 C          65.5173   91.5428   14.0226 C.ar    1  UNL1       -0.0009
     18 C          66.1075   92.3797   15.1186 C.ar    1  UNL1       -0.0164
     19 C          65.4799   92.3826   16.4809 C.ar    1  UNL1       -0.0008
     20 C          64.2620   91.5484   16.7473 C.ar    1  UNL1        0.0366
     21 C          63.6718   90.7115   15.6513 C.ar    1  UNL1        0.1386
     22 O          62.4539   89.8773   15.9178 O.3     1  UNL1       -0.4714
     23 C          62.4430   88.9109   17.0648 C.3     1  UNL1        0.2525
     24 C          67.3255   93.2139   14.8522 C.3     1  UNL1        0.0679
     25 C          68.6925   92.6361   15.0697 C.2     1  UNL1        0.0547
     26 O          69.5537   92.2836   13.8932 O.co2   1  UNL1       -0.5488
     27 O          69.1984   92.4108   16.4638 O.co2   1  UNL1       -0.5488
     28 C          64.4555   87.7164   14.4371 C.3     1  UNL1        0.1201
     29 N          63.9997   86.3632   14.8965 N.am    1  UNL1       -0.2754
     30 C          63.8289   85.2522   13.9033 C.2     1  UNL1        0.2254
     31 O          64.1139   85.4943   12.4507 O.2     1  UNL1       -0.2749
     32 C          63.3731   83.8989   14.3628 C.3     1  UNL1        0.0767
     33 C          63.6794   82.5622   14.9705 C.3     1  UNL1        0.0096
     34 C          62.2775   82.8918   14.5508 C.3     1  UNL1        0.0096
     35 C          63.7147   86.1210   16.3492 C.3     1  UNL1        0.0938
     36 C          62.3315   85.7430   16.7892 C.3     1  UNL1        0.0233
@<TRIPOS>UNITY_ATOM_ATTR
27 1
charge -1
@<TRIPOS>BOND
     1    14    15    1
     2    15    13    1
     3    13     7    1
     4     7     8   ar
     5     8     9   ar
     6     9    10   ar
     7    10     1    1
     8     1     2   ar
     9     2     3   ar
    10     3     4   ar
    11     4    16    1
    12    16    17   ar
    13    17    18   ar
    14    18    24    1
    15    24    25    1
    16    25    26   ar
    17    25    27   ar
    18    18    19   ar
    19    19    20   ar
    20    20    21   ar
    21    21    22    1
    22    22    23    1
    23     4     5   ar
    24     5    28    1
    25    28    29    1
    26    29    35    1
    27    35    36    1
    28    29    30   am
    29    30    31    2
    30    30    32    1
    31    32    33    1
    32    33    34    1
    33     5     6   ar
    34    10    11   ar
    35    11    12   ar
    36    12     7   ar
    37     6     1   ar
    38    21    16   ar
    39    34    32    1
