@<TRIPOS>MOLECULE
*****
 32 36 0 0 0
SMALL
GASTEIGER

@<TRIPOS>ATOM
      1 O          63.2890   87.1711   12.9235 O.2     1  UNL1       -0.2699
      2 C          62.7417   86.3474   11.7958 C.2     1  UNL1        0.2506
      3 N          61.7407   86.9416   10.8499 N.am    1  UNL1       -0.2723
      4 C          61.1935   86.1179    9.7221 C.3     1  UNL1        0.1257
      5 C          60.1924   86.7122    8.7762 C.3     1  UNL1        0.1637
      6 O          59.7386   88.1303    8.9581 O.3     1  UNL1       -0.3502
      7 C          60.2859   88.9541   10.0859 C.3     1  UNL1        0.1622
      8 C          61.2869   88.3598   11.0318 C.3     1  UNL1        0.1096
      9 C          63.1956   84.9292   11.6139 C.ar    1  UNL1        0.0729
     10 C          63.3883   84.3746   10.2336 C.ar    1  UNL1        0.0061
     11 C          63.8421   82.9566   10.0516 C.ar    1  UNL1        0.0002
     12 C          64.1031   82.0931   11.2501 C.ar    1  UNL1        0.0016
     13 C          63.9104   82.6477   12.6304 C.ar    1  UNL1        0.0211
     14 C          63.4566   84.0657   12.8123 C.ar    1  UNL1        0.1072
     15 N          63.2639   84.6203   14.1926 N.ar    1  UNL1       -0.1477
     16 N          64.3190   85.2722   15.0362 N.ar    1  UNL1       -0.1447
     17 C          63.6894   85.6752   16.3366 C.ar    1  UNL1        0.1446
     18 C          62.2451   85.2723   16.2968 C.ar    1  UNL1        0.1446
     19 N          61.9821   84.6204   14.9718 N.ar    1  UNL1       -0.1447
     20 C          61.8342   89.1836   12.1595 C.3     1  UNL1        0.0487
     21 C          62.8985   90.2065   11.8934 C.ar    1  UNL1       -0.0203
     22 C          62.9902   90.8604   10.5467 C.ar    1  UNL1       -0.0042
     23 C          64.0545   91.8834   10.2805 C.ar    1  UNL1       -0.0002
     24 C          65.0272   92.2523   11.3612 C.ar    1  UNL1        0.0030
     25 C          64.9354   91.5983   12.7080 C.ar    1  UNL1        0.0355
     26 C          63.8711   90.5754   12.9741 C.ar    1  UNL1       -0.0012
     27 C          65.9080   91.9673   13.7887 C.ar    1  UNL1        0.1622
     28 N          65.4077   92.3378   15.1535 N.ar    1  UNL1       -0.2250
     29 C          66.3803   92.7068   16.2342 C.ar    1  UNL1        0.1022
     30 C          67.8532   92.7052   15.9501 C.ar    1  UNL1        0.0414
     31 C          68.3535   92.3347   14.5854 C.ar    1  UNL1        0.1022
     32 N          67.3808   91.9657   13.5048 N.ar    1  UNL1       -0.2250
@<TRIPOS>BOND
     1     1     2    2
     2     2     9    1
     3     9    10   ar
     4    10    11   ar
     5    11    12   ar
     6    12    13   ar
     7    13    14   ar
     8    14    15    1
     9    15    16   ar
    10    16    17   ar
    11    17    18   ar
    12    18    19   ar
    13     2     3   am
    14     3     4    1
    15     4     5    1
    16     5     6    1
    17     6     7    1
    18     7     8    1
    19     8    20    1
    20    20    21    1
    21    21    22   ar
    22    22    23   ar
    23    23    24   ar
    24    24    25   ar
    25    25    27    1
    26    27    28   ar
    27    28    29   ar
    28    29    30   ar
    29    30    31   ar
    30    31    32   ar
    31    25    26   ar
    32    14     9   ar
    33    19    15   ar
    34     8     3    1
    35    26    21   ar
    36    32    27   ar
@<TRIPOS>MOLECULE
*****
 32 36 0 0 0
SMALL
GASTEIGER

@<TRIPOS>ATOM
      1 O          63.6471   87.4750   13.7099 O.2     1  UNL1       -0.2699
      2 C          63.0546   87.0776   12.3904 C.2     1  UNL1        0.2506
      3 N          62.4074   88.1112   11.5172 N.am    1  UNL1       -0.2723
      4 C          61.8148   87.7138   10.1977 C.3     1  UNL1        0.1257
      5 C          61.1675   88.7476    9.3244 C.3     1  UNL1        0.1637
      6 O          61.1128   90.1786    9.7706 O.3     1  UNL1       -0.3502
      7 C          61.7054   90.5760   11.0901 C.3     1  UNL1        0.1622
      8 C          62.3526   89.5423   11.9634 C.3     1  UNL1        0.1096
      9 C          63.1094   85.6465   11.9443 C.ar    1  UNL1        0.0729
     10 C          63.1401   85.3178   10.4810 C.ar    1  UNL1        0.0061
     11 C          63.1948   83.8868   10.0348 C.ar    1  UNL1        0.0002
     12 C          63.2188   82.7845   11.0518 C.ar    1  UNL1        0.0016
     13 C          63.1881   83.1132   12.5150 C.ar    1  UNL1        0.0211
     14 C          63.1334   84.5442   12.9613 C.ar    1  UNL1        0.1072
     15 N          63.1026   84.8729   14.4245 N.ar    1  UNL1       -0.1477
     16 N          61.8848   84.8851   15.3000 N.ar    1  UNL1       -0.1447
     17 C          62.3138   85.2669   16.6857 C.ar    1  UNL1        0.1446
     18 C          63.7969   85.4907   16.6666 C.ar    1  UNL1        0.1446
     19 N          64.2844   85.2472   15.2691 N.ar    1  UNL1       -0.1447
     20 C          62.9451   89.9397   13.2828 C.3     1  UNL1        0.0487
     21 C          64.2424   90.6914   13.3265 C.ar    1  UNL1       -0.0203
     22 C          65.1495   90.5535   14.5131 C.ar    1  UNL1       -0.0042
     23 C          66.4469   91.3052   14.5568 C.ar    1  UNL1       -0.0002
     24 C          66.8370   92.1949   13.4139 C.ar    1  UNL1        0.0030
     25 C          65.9298   92.3328   12.2272 C.ar    1  UNL1        0.0355
     26 C          64.6325   91.5811   12.1836 C.ar    1  UNL1       -0.0012
     27 C          66.3199   93.2225   11.0843 C.ar    1  UNL1        0.1622
     28 N          67.3185   92.7472   10.0709 N.ar    1  UNL1       -0.2250
     29 C          67.7087   93.6369    8.9280 C.ar    1  UNL1        0.1022
     30 C          67.1002   95.0019    8.7985 C.ar    1  UNL1        0.0414
     31 C          66.1017   95.4771    9.8119 C.ar    1  UNL1        0.1022
     32 N          65.7115   94.5874   10.9548 N.ar    1  UNL1       -0.2250
@<TRIPOS>BOND
     1     1     2    2
     2     2     9    1
     3     9    10   ar
     4    10    11   ar
     5    11    12   ar
     6    12    13   ar
     7    13    14   ar
     8    14    15    1
     9    15    16   ar
    10    16    17   ar
    11    17    18   ar
    12    18    19   ar
    13     2     3   am
    14     3     4    1
    15     4     5    1
    16     5     6    1
    17     6     7    1
    18     7     8    1
    19     8    20    1
    20    20    21    1
    21    21    22   ar
    22    22    23   ar
    23    23    24   ar
    24    24    25   ar
    25    25    27    1
    26    27    28   ar
    27    28    29   ar
    28    29    30   ar
    29    30    31   ar
    30    31    32   ar
    31    25    26   ar
    32    14     9   ar
    33    19    15   ar
    34     8     3    1
    35    26    21   ar
    36    32    27   ar
@<TRIPOS>MOLECULE
*****
 32 36 0 0 0
SMALL
GASTEIGER

@<TRIPOS>ATOM
      1 O          62.6406   89.9949   11.5680 O.2     1  UNL1       -0.2699
      2 C          62.6762   88.4953   11.5713 C.2     1  UNL1        0.2506
      3 N          63.3268   87.7630   12.7072 N.am    1  UNL1       -0.2723
      4 C          63.3624   86.2634   12.7104 C.3     1  UNL1        0.1257
      5 C          64.0130   85.5311   13.8465 C.3     1  UNL1        0.1637
      6 O          64.6279   86.2983   14.9792 O.3     1  UNL1       -0.3502
      7 C          64.5923   87.7979   14.9760 C.3     1  UNL1        0.1622
      8 C          63.9418   88.5302   13.8400 C.3     1  UNL1        0.1096
      9 C          62.0612   87.7281   10.4384 C.ar    1  UNL1        0.0729
     10 C          62.8852   86.7400    9.6672 C.ar    1  UNL1        0.0061
     11 C          62.2703   85.9728    8.5344 C.ar    1  UNL1        0.0002
     12 C          60.8314   86.1936    8.1729 C.ar    1  UNL1        0.0016
     13 C          60.0074   87.1816    8.9442 C.ar    1  UNL1        0.0211
     14 C          60.6223   87.9489   10.0770 C.ar    1  UNL1        0.1072
     15 N          59.7983   88.9369   10.8482 N.ar    1  UNL1       -0.1477
     16 N          59.0353   88.6553   12.1086 N.ar    1  UNL1       -0.1447
     17 C          58.3581   89.9244   12.5338 C.ar    1  UNL1        0.1446
     18 C          58.7026   90.9903   11.5363 C.ar    1  UNL1        0.1446
     19 N          59.5927   90.3800   10.4945 N.ar    1  UNL1       -0.1447
     20 C          63.9062   90.0298   13.8368 C.3     1  UNL1        0.0487
     21 C          65.1858   90.8103   13.7779 C.ar    1  UNL1       -0.0203
     22 C          66.1486   90.7598   14.9269 C.ar    1  UNL1       -0.0042
     23 C          67.4282   91.5403   14.8680 C.ar    1  UNL1       -0.0002
     24 C          67.7450   92.3712   13.6600 C.ar    1  UNL1        0.0030
     25 C          66.7821   92.4216   12.5109 C.ar    1  UNL1        0.0355
     26 C          65.5025   91.6412   12.5698 C.ar    1  UNL1       -0.0012
     27 C          67.0989   93.2525   11.3029 C.ar    1  UNL1        0.1622
     28 N          66.6712   94.6892   11.2477 N.ar    1  UNL1       -0.2250
     29 C          66.9879   95.5201   10.0397 C.ar    1  UNL1        0.1022
     30 C          67.7324   94.9143    8.8869 C.ar    1  UNL1        0.0414
     31 C          68.1601   93.4776    8.9422 C.ar    1  UNL1        0.1022
     32 N          67.8433   92.6468   10.1502 N.ar    1  UNL1       -0.2250
@<TRIPOS>BOND
     1     1     2    2
     2     2     9    1
     3     9    10   ar
     4    10    11   ar
     5    11    12   ar
     6    12    13   ar
     7    13    14   ar
     8    14    15    1
     9    15    16   ar
    10    16    17   ar
    11    17    18   ar
    12    18    19   ar
    13     2     3   am
    14     3     4    1
    15     4     5    1
    16     5     6    1
    17     6     7    1
    18     7     8    1
    19     8    20    1
    20    20    21    1
    21    21    22   ar
    22    22    23   ar
    23    23    24   ar
    24    24    25   ar
    25    25    27    1
    26    27    28   ar
    27    28    29   ar
    28    29    30   ar
    29    30    31   ar
    30    31    32   ar
    31    25    26   ar
    32    14     9   ar
    33    19    15   ar
    34     8     3    1
    35    26    21   ar
    36    32    27   ar
@<TRIPOS>MOLECULE
*****
 32 36 0 0 0
SMALL
GASTEIGER

@<TRIPOS>ATOM
      1 O          63.6743   88.4307   12.3735 O.2     1  UNL1       -0.2699
      2 C          63.5599   87.3827   13.4405 C.2     1  UNL1        0.2506
      3 N          63.4213   87.7878   14.8780 N.am    1  UNL1       -0.2723
      4 C          63.3069   86.7397   15.9450 C.3     1  UNL1        0.1257
      5 C          63.1684   87.1450   17.3826 C.3     1  UNL1        0.1637
      6 O          63.1442   88.5982   17.7532 O.3     1  UNL1       -0.3502
      7 C          63.2586   89.6463   16.6862 C.3     1  UNL1        0.1622
      8 C          63.3972   89.2412   15.2487 C.3     1  UNL1        0.1096
      9 C          63.5840   85.9293   13.0699 C.ar    1  UNL1        0.0729
     10 C          64.4254   84.9686   13.8566 C.ar    1  UNL1        0.0061
     11 C          64.4496   83.5153   13.4860 C.ar    1  UNL1        0.0002
     12 C          63.6324   83.0228   12.3287 C.ar    1  UNL1        0.0016
     13 C          62.7910   83.9835   11.5419 C.ar    1  UNL1        0.0211
     14 C          62.7668   85.4368   11.9125 C.ar    1  UNL1        0.1072
     15 N          61.9255   86.3976   11.1257 N.ar    1  UNL1       -0.1477
     16 N          60.7016   87.1088   11.6220 N.ar    1  UNL1       -0.1447
     17 C          60.1800   87.9666   10.5075 C.ar    1  UNL1        0.1446
     18 C          61.0814   87.7855    9.3223 C.ar    1  UNL1        0.1446
     19 N          62.1602   86.8158    9.7044 N.ar    1  UNL1       -0.1447
     20 C          63.5116   90.2893   14.1817 C.3     1  UNL1        0.0487
     21 C          64.6724   91.2392   14.1850 C.ar    1  UNL1       -0.0203
     22 C          65.3230   91.6239   15.4806 C.ar    1  UNL1       -0.0042
     23 C          66.4839   92.5739   15.4838 C.ar    1  UNL1       -0.0002
     24 C          66.9941   93.1392   14.1915 C.ar    1  UNL1        0.0030
     25 C          66.3434   92.7544   12.8958 C.ar    1  UNL1        0.0355
     26 C          65.1826   91.8045   12.8926 C.ar    1  UNL1       -0.0012
     27 C          66.8536   93.3196   11.6035 C.ar    1  UNL1        0.1622
     28 N          67.6371   92.4526   10.6630 N.ar    1  UNL1       -0.2250
     29 C          68.1473   93.0178    9.3707 C.ar    1  UNL1        0.1022
     30 C          67.8739   94.4501    9.0187 C.ar    1  UNL1        0.0414
     31 C          67.0904   95.3171    9.9591 C.ar    1  UNL1        0.1022
     32 N          66.5802   94.7519   11.2515 N.ar    1  UNL1       -0.2250
@<TRIPOS>BOND
     1     1     2    2
     2     2     9    1
     3     9    10   ar
     4    10    11   ar
     5    11    12   ar
     6    12    13   ar
     7    13    14   ar
     8    14    15    1
     9    15    16   ar
    10    16    17   ar
    11    17    18   ar
    12    18    19   ar
    13     2     3   am
    14     3     4    1
    15     4     5    1
    16     5     6    1
    17     6     7    1
    18     7     8    1
    19     8    20    1
    20    20    21    1
    21    21    22   ar
    22    22    23   ar
    23    23    24   ar
    24    24    25   ar
    25    25    27    1
    26    27    28   ar
    27    28    29   ar
    28    29    30   ar
    29    30    31   ar
    30    31    32   ar
    31    25    26   ar
    32    14     9   ar
    33    19    15   ar
    34     8     3    1
    35    26    21   ar
    36    32    27   ar
@<TRIPOS>MOLECULE
*****
 32 36 0 0 0
SMALL
GASTEIGER

@<TRIPOS>ATOM
      1 O          61.8765   85.6599   13.1159 O.2     1  UNL1       -0.2699
      2 C          62.4112   84.6169   12.1799 C.2     1  UNL1        0.2506
      3 N          62.6316   84.9490   10.7339 N.am    1  UNL1       -0.2723
      4 C          63.1663   83.9060    9.7978 C.3     1  UNL1        0.1257
      5 C          63.3867   84.2382    8.3517 C.3     1  UNL1        0.1637
      6 O          63.0725   85.6134    7.8417 O.3     1  UNL1       -0.3502
      7 C          62.5378   86.6564    8.7778 C.3     1  UNL1        0.1622
      8 C          62.3174   86.3243   10.2238 C.3     1  UNL1        0.1096
      9 C          62.7254   83.2417   12.6899 C.ar    1  UNL1        0.0729
     10 C          62.5390   82.0502   11.7979 C.ar    1  UNL1        0.0061
     11 C          62.8532   80.6750   12.3079 C.ar    1  UNL1        0.0002
     12 C          63.3538   80.4913   13.7099 C.ar    1  UNL1        0.0016
     13 C          63.5402   81.6828   14.6019 C.ar    1  UNL1        0.0211
     14 C          63.2260   83.0579   14.0919 C.ar    1  UNL1        0.1072
     15 N          63.4125   84.2494   14.9839 N.ar    1  UNL1       -0.1477
     16 N          62.5135   84.6536   16.1146 N.ar    1  UNL1       -0.1447
     17 C          63.0760   85.8999   16.7313 C.ar    1  UNL1        0.1446
     18 C          64.3227   86.2660   15.9818 C.ar    1  UNL1        0.1446
     19 N          64.5306   85.2459   14.9018 N.ar    1  UNL1       -0.1447
     20 C          61.7827   87.3673   11.1599 C.3     1  UNL1        0.0487
     21 C          62.3770   88.7445   11.1665 C.ar    1  UNL1       -0.0203
     22 C          62.3181   89.5927    9.9308 C.ar    1  UNL1       -0.0042
     23 C          62.9124   90.9700    9.9374 C.ar    1  UNL1       -0.0002
     24 C          63.5655   91.4990   11.1798 C.ar    1  UNL1        0.0030
     25 C          63.6244   90.6508   12.4156 C.ar    1  UNL1        0.0355
     26 C          63.0301   89.2735   12.4089 C.ar    1  UNL1       -0.0012
     27 C          64.2776   91.1798   13.6580 C.ar    1  UNL1        0.1622
     28 N          65.6260   91.8319   13.5769 N.ar    1  UNL1       -0.2250
     29 C          66.2792   92.3609   14.8193 C.ar    1  UNL1        0.1022
     30 C          65.5839   92.2378   16.1428 C.ar    1  UNL1        0.0414
     31 C          64.2355   91.5857   16.2238 C.ar    1  UNL1        0.1022
     32 N          63.5823   91.0567   14.9814 N.ar    1  UNL1       -0.2250
@<TRIPOS>BOND
     1     1     2    2
     2     2     9    1
     3     9    10   ar
     4    10    11   ar
     5    11    12   ar
     6    12    13   ar
     7    13    14   ar
     8    14    15    1
     9    15    16   ar
    10    16    17   ar
    11    17    18   ar
    12    18    19   ar
    13     2     3   am
    14     3     4    1
    15     4     5    1
    16     5     6    1
    17     6     7    1
    18     7     8    1
    19     8    20    1
    20    20    21    1
    21    21    22   ar
    22    22    23   ar
    23    23    24   ar
    24    24    25   ar
    25    25    27    1
    26    27    28   ar
    27    28    29   ar
    28    29    30   ar
    29    30    31   ar
    30    31    32   ar
    31    25    26   ar
    32    14     9   ar
    33    19    15   ar
    34     8     3    1
    35    26    21   ar
    36    32    27   ar
