@<TRIPOS>MOLECULE
*****
 46 48 0 0 0
SMALL
GASTEIGER

@<TRIPOS>ATOM
      1 C          61.0892   88.4645   10.2654 C.3     1  UNL1        0.1054
      2 C          60.0347   88.2942    9.2124 C.3     1  UNL1        0.1689
      3 S          59.9564   87.0175    8.4290 S.O2    1  UNL1       -0.0085
      4 O          59.4819   86.0025    7.4317 O.2     1  UNL1       -0.1729
      5 O          58.8153   87.7713    7.8130 O.2     1  UNL1       -0.1729
      6 C          60.9328   85.9111    8.6986 C.3     1  UNL1        0.1536
      7 C          61.9873   86.0814    9.7516 C.3     1  UNL1        0.0562
      8 C          62.0656   87.3582   10.5350 C.3     1  UNL1        0.1285
      9 O          63.1202   87.5286   11.5880 O.3     1  UNL1       -0.3830
     10 H          63.0314   88.4042   11.9959 H       1  UNL1        0.2104
     11 N          61.1675   89.7413   11.0488 N.3     1  UNL1       -0.2915
     12 H          60.2128   90.0877   11.1435 H       1  UNL1        0.1236
     13 C          61.9944   90.8844   10.5393 C.3     1  UNL1        0.0957
     14 C          65.5682   92.4617   11.2396 C.ar    1  UNL1       -0.0207
     15 C          65.7934   92.0341   12.6595 C.ar    1  UNL1       -0.0042
     16 C          64.7524   91.2232   13.3728 C.ar    1  UNL1       -0.0006
     17 C          63.4861   90.8400   12.6661 C.ar    1  UNL1       -0.0029
     18 C          63.2608   91.2676   11.2461 C.ar    1  UNL1       -0.0067
     19 C          64.3018   92.0785   10.5329 C.ar    1  UNL1       -0.0071
     20 C          67.5226   92.0829   10.5070 C.3     1  UNL1        0.0069
     21 C          66.6092   93.2726   10.5263 C.3     1  UNL1        0.0460
     22 C          65.6958   94.4622   10.5456 C.3     1  UNL1        0.0069
     23 C          67.6503   94.0834    9.8131 C.3     1  UNL1        0.1410
     24 O          69.0624   93.5846    9.7299 O.3     1  UNL1       -0.3817
     25 H          69.4516   93.5660   10.6182 H       1  UNL1        0.2105
     26 C          62.9637   84.9750   10.0212 C.3     1  UNL1        0.0307
     27 C          62.7767   84.0836   11.2129 C.ar    1  UNL1       -0.0167
     28 C          62.8993   82.5960   11.0635 C.ar    1  UNL1        0.0268
     29 C          62.7123   81.7046   12.2552 C.ar    1  UNL1        0.1556
     30 F          62.8349   80.2171   12.1058 F       1  UNL1       -0.2028
     31 C          62.4027   82.3006   13.5965 C.ar    1  UNL1        0.1037
     32 N          62.2157   81.4092   14.7882 N.pl3   1  UNL1       -0.3529
     33 C          62.2801   83.7881   13.7459 C.ar    1  UNL1        0.1538
     34 C          62.4671   84.6796   12.5542 C.ar    1  UNL1        0.0341
     35 H          62.2962   80.4329   14.6901 H       1  UNL1        0.1425
     36 H          62.0125   81.8004   15.6685 H       1  UNL1        0.1425
     37 O          61.9705   84.3841   15.0872 O.3     1  UNL1       -0.4621
     38 C          63.0146   85.1793   15.8136 C.3     1  UNL1        0.3551
     39 C          62.6755   85.8564   17.1084 C.3     1  UNL1        0.4428
     40 F          62.3364   86.5334   18.4033 F       1  UNL1       -0.1661
     41 F          61.2243   85.8551   16.7291 F       1  UNL1       -0.1661
     42 F          64.1267   85.8576   17.4878 F       1  UNL1       -0.1661
     43 C          64.3976   85.2973   15.2452 C.3     1  UNL1        0.4428
     44 F          65.7807   85.4154   14.6768 F       1  UNL1       -0.1661
     45 F          64.6600   83.8601   15.5850 F       1  UNL1       -0.1661
     46 F          64.1353   86.7346   14.9054 F       1  UNL1       -0.1661
@<TRIPOS>BOND
     1    20    21    1
     2    21    22    1
     3    21    23    1
     4    23    24    1
     5    21    14    1
     6    14    15   ar
     7    15    16   ar
     8    16    17   ar
     9    17    18   ar
    10    18    13    1
    11    13    11    1
    12     1    11    1
    13     1     2    1
    14     2     3    1
    15     3     4    2
    16     3     5    2
    17     3     6    1
    18     6     7    1
    19     7    26    1
    20    26    27    1
    21    27    28   ar
    22    28    29   ar
    23    29    30    1
    24    29    31   ar
    25    31    32    1
    26    31    33   ar
    27    33    37    1
    28    37    38    1
    29    38    39    1
    30    39    40    1
    31    39    41    1
    32    39    42    1
    33    38    43    1
    34    43    44    1
    35    43    45    1
    36    43    46    1
    37    33    34   ar
    38     7     8    1
    39     8     9    1
    40    18    19   ar
    41    19    14   ar
    42     8     1    1
    43    34    27   ar
    44    24    25    1
    45    11    12    1
    46    32    35    1
    47    32    36    1
    48     9    10    1
@<TRIPOS>MOLECULE
*****
 46 48 0 0 0
SMALL
GASTEIGER

@<TRIPOS>ATOM
      1 C          60.9330   88.4983   10.1498 C.3     1  UNL1        0.1054
      2 C          59.9089   88.2823    9.0753 C.3     1  UNL1        0.1689
      3 S          59.8965   86.9994    8.2981 S.O2    1  UNL1       -0.0085
      4 O          59.4829   85.9618    7.2969 O.2     1  UNL1       -0.1729
      5 O          58.7412   87.7058    7.6530 O.2     1  UNL1       -0.1729
      6 C          60.9082   85.9325    8.5955 C.3     1  UNL1        0.1536
      7 C          61.9322   86.1486    9.6699 C.3     1  UNL1        0.0562
      8 C          61.9446   87.4315   10.4471 C.3     1  UNL1        0.1285
      9 O          62.9687   87.6476   11.5217 O.3     1  UNL1       -0.3830
     10 H          62.8377   88.5213   11.9222 H       1  UNL1        0.2104
     11 N          60.9454   89.7812   10.9270 N.3     1  UNL1       -0.2915
     12 H          61.1286   90.5291   10.2580 H       1  UNL1        0.1236
     13 C          61.9147   89.9642   12.0570 C.3     1  UNL1        0.0957
     14 C          65.1550   92.0983   12.8912 C.ar    1  UNL1       -0.0207
     15 C          65.5110   92.6172   11.5295 C.ar    1  UNL1       -0.0042
     16 C          64.6682   92.2517   10.3437 C.ar    1  UNL1       -0.0006
     17 C          63.4694   91.3674   10.5195 C.ar    1  UNL1       -0.0029
     18 C          63.1135   90.8485   11.8811 C.ar    1  UNL1       -0.0067
     19 C          63.9563   91.2140   13.0670 C.ar    1  UNL1       -0.0071
     20 C          65.5021   91.2488   14.8037 C.3     1  UNL1        0.0069
     21 C          65.9978   92.4638   14.0770 C.3     1  UNL1        0.0460
     22 C          66.4936   93.6787   13.3502 C.3     1  UNL1        0.0069
     23 C          66.8406   92.8292   15.2628 C.3     1  UNL1        0.1410
     24 O          66.2340   92.8562   16.6343 O.3     1  UNL1       -0.3817
     25 H          65.5722   93.5638   16.6813 H       1  UNL1        0.2105
     26 C          62.9439   85.0818    9.9673 C.3     1  UNL1        0.0307
     27 C          62.7676   84.1933   11.1629 C.ar    1  UNL1       -0.0167
     28 C          62.9138   82.7071   11.0211 C.ar    1  UNL1        0.0268
     29 C          62.7375   81.8187   12.2167 C.ar    1  UNL1        0.1556
     30 F          62.8836   80.3326   12.0748 F       1  UNL1       -0.2028
     31 C          62.4151   82.4163   13.5542 C.ar    1  UNL1        0.1037
     32 N          62.2388   81.5279   14.7498 N.pl3   1  UNL1       -0.3529
     33 C          62.2689   83.9024   13.6961 C.ar    1  UNL1        0.1538
     34 C          62.4452   84.7909   12.5004 C.ar    1  UNL1        0.0341
     35 H          62.3347   80.5525   14.6567 H       1  UNL1        0.1425
     36 H          62.0272   81.9201   15.6276 H       1  UNL1        0.1425
     37 O          61.9465   84.5000   15.0335 O.3     1  UNL1       -0.4621
     38 C          63.0070   85.2282   15.8050 C.3     1  UNL1        0.3551
     39 C          62.6725   85.8669   17.1204 C.3     1  UNL1        0.4428
     40 F          62.3380   86.5055   18.4357 F       1  UNL1       -0.1661
     41 F          61.2263   85.9215   16.7260 F       1  UNL1       -0.1661
     42 F          64.1187   85.8122   17.5147 F       1  UNL1       -0.1661
     43 C          64.4020   85.3176   15.2611 C.3     1  UNL1        0.4428
     44 F          65.7971   85.4071   14.7171 F       1  UNL1       -0.1661
     45 F          64.6348   83.8803   15.6216 F       1  UNL1       -0.1661
     46 F          64.1693   86.7549   14.9005 F       1  UNL1       -0.1661
@<TRIPOS>BOND
     1    20    21    1
     2    21    22    1
     3    21    23    1
     4    23    24    1
     5    21    14    1
     6    14    15   ar
     7    15    16   ar
     8    16    17   ar
     9    17    18   ar
    10    18    13    1
    11    13    11    1
    12     1    11    1
    13     1     2    1
    14     2     3    1
    15     3     4    2
    16     3     5    2
    17     3     6    1
    18     6     7    1
    19     7    26    1
    20    26    27    1
    21    27    28   ar
    22    28    29   ar
    23    29    30    1
    24    29    31   ar
    25    31    32    1
    26    31    33   ar
    27    33    37    1
    28    37    38    1
    29    38    39    1
    30    39    40    1
    31    39    41    1
    32    39    42    1
    33    38    43    1
    34    43    44    1
    35    43    45    1
    36    43    46    1
    37    33    34   ar
    38     7     8    1
    39     8     9    1
    40    18    19   ar
    41    19    14   ar
    42     8     1    1
    43    34    27   ar
    44    24    25    1
    45    11    12    1
    46    32    35    1
    47    32    36    1
    48     9    10    1
@<TRIPOS>MOLECULE
*****
 46 48 0 0 0
SMALL
GASTEIGER

@<TRIPOS>ATOM
      1 C          62.9916   84.2417   14.1421 C.3     1  UNL1        0.1054
      2 C          62.7678   82.7818   14.4038 C.3     1  UNL1        0.1689
      3 S          62.8342   81.7984   13.2731 S.O2    1  UNL1       -0.0085
      4 O          62.7951   80.4920   12.5371 O.2     1  UNL1       -0.1729
      5 O          62.5305   80.8681   14.4098 O.2     1  UNL1       -0.1729
      6 C          63.1243   82.2750   11.8807 C.3     1  UNL1        0.1536
      7 C          63.3481   83.7349   11.6190 C.3     1  UNL1        0.0562
      8 C          63.2817   84.7183   12.7498 C.3     1  UNL1        0.1285
      9 O          63.5055   86.1783   12.4881 O.3     1  UNL1       -0.3830
     10 H          63.4282   86.6714   13.3199 H       1  UNL1        0.2104
     11 N          62.9252   85.2251   15.2729 N.3     1  UNL1       -0.2915
     12 H          62.1365   85.8425   15.0802 H       1  UNL1        0.1236
     13 C          64.1021   86.1061   15.5707 C.3     1  UNL1        0.0957
     14 C          64.3103   89.9944   14.8039 C.ar    1  UNL1       -0.0207
     15 C          63.5410   90.5537   15.9638 C.ar    1  UNL1       -0.0042
     16 C          62.9587   89.6304   16.9926 C.ar    1  UNL1       -0.0006
     17 C          63.1457   88.1479   16.8616 C.ar    1  UNL1       -0.0029
     18 C          63.9150   87.5887   15.7018 C.ar    1  UNL1       -0.0067
     19 C          64.4973   88.5119   14.6729 C.ar    1  UNL1       -0.0071
     20 C          66.1374   91.0530   14.6010 C.3     1  UNL1        0.0069
     21 C          64.8927   90.9176   13.7751 C.3     1  UNL1        0.0460
     22 C          63.6479   90.7823   12.9491 C.3     1  UNL1        0.0069
     23 C          65.4750   91.8409   12.7462 C.3     1  UNL1        0.1410
     24 O          65.4288   93.3250   12.9584 O.3     1  UNL1       -0.3817
     25 H          64.5066   93.6254   12.9426 H       1  UNL1        0.2105
     26 C          63.6382   84.2115   10.2267 C.3     1  UNL1        0.0307
     27 C          62.5598   84.8720    9.4200 C.ar    1  UNL1       -0.0167
     28 C          62.3900   84.5272    7.9701 C.ar    1  UNL1        0.0268
     29 C          61.3115   85.1876    7.1634 C.ar    1  UNL1        0.1556
     30 F          61.1417   84.8428    5.7135 F       1  UNL1       -0.2028
     31 C          60.4029   86.1929    7.8067 C.ar    1  UNL1        0.1037
     32 N          59.3245   86.8534    7.0000 N.pl3   1  UNL1       -0.3529
     33 C          60.5727   86.5377    9.2566 C.ar    1  UNL1        0.1538
     34 C          61.6512   85.8773   10.0633 C.ar    1  UNL1        0.0341
     35 H          59.2130   86.6271    6.0484 H       1  UNL1        0.1425
     36 H          58.7281   87.5132    7.4222 H       1  UNL1        0.1425
     37 O          59.6641   87.5430    9.8998 O.3     1  UNL1       -0.4621
     38 C          60.2325   88.8028   10.4830 C.3     1  UNL1        0.3551
     39 C          59.3869   89.6659   11.3718 C.3     1  UNL1        0.4428
     40 F          58.5414   90.5291   12.2606 F       1  UNL1       -0.1661
     41 F          59.0074   88.4611   12.1808 F       1  UNL1       -0.1661
     42 F          59.7664   90.8707   10.5628 F       1  UNL1       -0.1661
     43 C          61.6465   89.1993   10.1773 C.3     1  UNL1        0.4428
     44 F          63.0604   89.5958    9.8717 F       1  UNL1       -0.1661
     45 F          62.0614   88.7833   11.5574 F       1  UNL1       -0.1661
     46 F          61.2315   89.6152    8.7972 F       1  UNL1       -0.1661
@<TRIPOS>BOND
     1    20    21    1
     2    21    22    1
     3    21    23    1
     4    23    24    1
     5    21    14    1
     6    14    15   ar
     7    15    16   ar
     8    16    17   ar
     9    17    18   ar
    10    18    13    1
    11    13    11    1
    12     1    11    1
    13     1     2    1
    14     2     3    1
    15     3     4    2
    16     3     5    2
    17     3     6    1
    18     6     7    1
    19     7    26    1
    20    26    27    1
    21    27    28   ar
    22    28    29   ar
    23    29    30    1
    24    29    31   ar
    25    31    32    1
    26    31    33   ar
    27    33    37    1
    28    37    38    1
    29    38    39    1
    30    39    40    1
    31    39    41    1
    32    39    42    1
    33    38    43    1
    34    43    44    1
    35    43    45    1
    36    43    46    1
    37    33    34   ar
    38     7     8    1
    39     8     9    1
    40    18    19   ar
    41    19    14   ar
    42     8     1    1
    43    34    27   ar
    44    24    25    1
    45    11    12    1
    46    32    35    1
    47    32    36    1
    48     9    10    1
@<TRIPOS>MOLECULE
*****
 46 48 0 0 0
SMALL
GASTEIGER

@<TRIPOS>ATOM
      1 C          60.8401   87.5497   10.5435 C.3     1  UNL1        0.1054
      2 C          59.6370   88.0592   11.2802 C.3     1  UNL1        0.1689
      3 S          59.5352   89.5130   11.6354 S.O2    1  UNL1       -0.0085
      4 O          58.9844   90.7932   12.1900 O.2     1  UNL1       -0.1729
      5 O          58.2426   89.0134   12.2097 O.2     1  UNL1       -0.1729
      6 C          60.6364   90.4572   11.2538 C.3     1  UNL1        0.1536
      7 C          61.8395   89.9477   10.5170 C.3     1  UNL1        0.0562
      8 C          61.9414   88.4940   10.1618 C.3     1  UNL1        0.1285
      9 O          63.1445   87.9844    9.4250 O.3     1  UNL1       -0.3830
     10 H          63.0521   87.0305    9.2755 H       1  UNL1        0.2104
     11 N          60.9420   86.0959   10.1883 N.3     1  UNL1       -0.2915
     12 H          60.4546   85.5791   10.9202 H       1  UNL1        0.1236
     13 C          62.2890   85.4553   10.0295 C.3     1  UNL1        0.0957
     14 C          63.4958   84.5814   13.7078 C.ar    1  UNL1       -0.0207
     15 C          64.1539   83.2526   13.4820 C.ar    1  UNL1       -0.0042
     16 C          64.1904   82.6579   12.1054 C.ar    1  UNL1       -0.0006
     17 C          63.5687   83.3921   10.9546 C.ar    1  UNL1       -0.0029
     18 C          62.9107   84.7210   11.1803 C.ar    1  UNL1       -0.0067
     19 C          62.8742   85.3156   12.5570 C.ar    1  UNL1       -0.0071
     20 C          64.5939   86.0875   14.7208 C.3     1  UNL1        0.0069
     21 C          63.4594   85.1761   15.0844 C.3     1  UNL1        0.0460
     22 C          62.3249   84.2647   15.4481 C.3     1  UNL1        0.0069
     23 C          63.4229   85.7707   16.4610 C.3     1  UNL1        0.1410
     24 O          62.1783   85.6641   17.2914 O.3     1  UNL1       -0.3817
     25 H          61.4670   86.1753   16.8748 H       1  UNL1        0.2105
     26 C          62.9408   90.8920   10.1353 C.3     1  UNL1        0.0307
     27 C          63.9229   91.3560   11.1697 C.ar    1  UNL1       -0.0167
     28 C          63.8535   90.8137   12.5666 C.ar    1  UNL1        0.0268
     29 C          64.8356   91.2777   13.6009 C.ar    1  UNL1        0.1556
     30 F          64.7661   90.7354   14.9977 F       1  UNL1       -0.2028
     31 C          65.8874   92.2839   13.2385 C.ar    1  UNL1        0.1037
     32 N          66.8696   92.7479   14.2729 N.pl3   1  UNL1       -0.3529
     33 C          65.9569   92.8262   11.8417 C.ar    1  UNL1        0.1538
     34 C          64.9747   92.3622   10.8073 C.ar    1  UNL1        0.0341
     35 H          66.8239   92.3920   15.1897 H       1  UNL1        0.1425
     36 H          67.5598   93.4084   14.0350 H       1  UNL1        0.1425
     37 O          67.0086   93.8324   11.4793 O.3     1  UNL1       -0.4621
     38 C          67.1872   94.2487   10.0493 C.3     1  UNL1        0.3551
     39 C          67.9348   93.3622    9.0979 C.3     1  UNL1        0.4428
     40 F          68.6824   92.4757    8.1465 F       1  UNL1       -0.1661
     41 F          67.4868   94.2168    7.9495 F       1  UNL1       -0.1661
     42 F          68.3829   92.5076   10.2463 F       1  UNL1       -0.1661
     43 C          66.6182   95.5515    9.5707 C.3     1  UNL1        0.4428
     44 F          66.0492   96.8542    9.0922 F       1  UNL1       -0.1661
     45 F          65.2340   94.9815    9.6648 F       1  UNL1       -0.1661
     46 F          68.0025   96.1215    9.4766 F       1  UNL1       -0.1661
@<TRIPOS>BOND
     1    20    21    1
     2    21    22    1
     3    21    23    1
     4    23    24    1
     5    21    14    1
     6    14    15   ar
     7    15    16   ar
     8    16    17   ar
     9    17    18   ar
    10    18    13    1
    11    13    11    1
    12     1    11    1
    13     1     2    1
    14     2     3    1
    15     3     4    2
    16     3     5    2
    17     3     6    1
    18     6     7    1
    19     7    26    1
    20    26    27    1
    21    27    28   ar
    22    28    29   ar
    23    29    30    1
    24    29    31   ar
    25    31    32    1
    26    31    33   ar
    27    33    37    1
    28    37    38    1
    29    38    39    1
    30    39    40    1
    31    39    41    1
    32    39    42    1
    33    38    43    1
    34    43    44    1
    35    43    45    1
    36    43    46    1
    37    33    34   ar
    38     7     8    1
    39     8     9    1
    40    18    19   ar
    41    19    14   ar
    42     8     1    1
    43    34    27   ar
    44    24    25    1
    45    11    12    1
    46    32    35    1
    47    32    36    1
    48     9    10    1
@<TRIPOS>MOLECULE
*****
 46 48 0 0 0
SMALL
GASTEIGER

@<TRIPOS>ATOM
      1 C          62.8345   88.0096   12.1229 C.3     1  UNL1        0.1054
      2 C          62.3926   88.6840   10.8581 C.3     1  UNL1        0.1689
      3 S          62.5029   90.1740   10.7247 S.O2    1  UNL1       -0.0085
      4 O          62.4103   91.5462   10.1261 O.2     1  UNL1       -0.1729
      5 O          61.9185   89.8351    9.3854 O.2     1  UNL1       -0.1729
      6 C          63.0552   90.9894   11.8560 C.3     1  UNL1        0.1536
      7 C          63.4971   90.3150   13.1209 C.3     1  UNL1        0.0562
      8 C          63.3867   88.8251   13.2543 C.3     1  UNL1        0.1285
      9 O          63.8286   88.1505   14.5192 O.3     1  UNL1       -0.3830
     10 H          63.6907   87.1936   14.4405 H       1  UNL1        0.2104
     11 N          62.7241   86.5196   12.2564 N.3     1  UNL1       -0.2915
     12 H          63.5708   86.2028   12.7290 H       1  UNL1        0.1236
     13 C          62.5663   85.6666   11.0328 C.3     1  UNL1        0.0957
     14 C          62.6941   81.8646   12.1636 C.ar    1  UNL1       -0.0207
     15 C          63.6710   81.3065   11.1716 C.ar    1  UNL1       -0.0042
     16 C          64.2796   82.2017   10.1333 C.ar    1  UNL1       -0.0006
     17 C          63.9114   83.6550   10.0870 C.ar    1  UNL1       -0.0029
     18 C          62.9346   84.2131   11.0790 C.ar    1  UNL1       -0.0067
     19 C          62.3259   83.3179   12.1173 C.ar    1  UNL1       -0.0071
     20 C          61.7465   82.1684   14.0370 C.3     1  UNL1        0.0069
     21 C          62.0855   80.9694   13.2020 C.3     1  UNL1        0.0460
     22 C          62.4245   79.7703   12.3669 C.3     1  UNL1        0.0069
     23 C          61.4768   80.0742   14.2403 C.3     1  UNL1        0.1410
     24 O          60.0087   80.1583   14.5357 O.3     1  UNL1       -0.3817
     25 H          59.8067   81.0222   14.9277 H       1  UNL1        0.2105
     26 C          64.0493   91.1305   14.2522 C.3     1  UNL1        0.0307
     27 C          65.5050   91.4917   14.2757 C.ar    1  UNL1       -0.0167
     28 C          66.1949   91.7407   15.5842 C.ar    1  UNL1        0.0268
     29 C          67.6506   92.1019   15.6077 C.ar    1  UNL1        0.1556
     30 F          68.3405   92.3509   16.9161 F       1  UNL1       -0.2028
     31 C          68.4163   92.2141   14.3227 C.ar    1  UNL1        0.1037
     32 N          69.8720   92.5753   14.3462 N.pl3   1  UNL1       -0.3529
     33 C          67.7264   91.9651   13.0143 C.ar    1  UNL1        0.1538
     34 C          66.2707   91.6039   12.9908 C.ar    1  UNL1        0.0341
     35 H          70.3248   92.7387   15.2050 H       1  UNL1        0.1425
     36 H          70.3745   92.6490   13.5029 H       1  UNL1        0.1425
     37 O          68.4922   92.0773   11.7294 O.3     1  UNL1       -0.4621
     38 C          67.8166   92.6018   10.4970 C.3     1  UNL1        0.3551
     39 C          68.4665   92.4326    9.1558 C.3     1  UNL1        0.4428
     40 F          69.1165   92.2633    7.8146 F       1  UNL1       -0.1661
     41 F          68.1933   90.9586    9.2094 F       1  UNL1       -0.1661
     42 F          68.7397   93.9065    9.1022 F       1  UNL1       -0.1661
     43 C          66.4911   93.2955   10.6060 C.3     1  UNL1        0.4428
     44 F          65.1656   93.9891   10.7149 F       1  UNL1       -0.1661
     45 F          65.8046   92.0639   10.0942 F       1  UNL1       -0.1661
     46 F          67.1776   94.5270   11.1178 F       1  UNL1       -0.1661
@<TRIPOS>BOND
     1    20    21    1
     2    21    22    1
     3    21    23    1
     4    23    24    1
     5    21    14    1
     6    14    15   ar
     7    15    16   ar
     8    16    17   ar
     9    17    18   ar
    10    18    13    1
    11    13    11    1
    12     1    11    1
    13     1     2    1
    14     2     3    1
    15     3     4    2
    16     3     5    2
    17     3     6    1
    18     6     7    1
    19     7    26    1
    20    26    27    1
    21    27    28   ar
    22    28    29   ar
    23    29    30    1
    24    29    31   ar
    25    31    32    1
    26    31    33   ar
    27    33    37    1
    28    37    38    1
    29    38    39    1
    30    39    40    1
    31    39    41    1
    32    39    42    1
    33    38    43    1
    34    43    44    1
    35    43    45    1
    36    43    46    1
    37    33    34   ar
    38     7     8    1
    39     8     9    1
    40    18    19   ar
    41    19    14   ar
    42     8     1    1
    43    34    27   ar
    44    24    25    1
    45    11    12    1
    46    32    35    1
    47    32    36    1
    48     9    10    1
@<TRIPOS>MOLECULE
*****
 46 48 0 0 0
SMALL
GASTEIGER

@<TRIPOS>ATOM
      1 C          63.1090   87.6213   12.4485 C.3     1  UNL1        0.1054
      2 C          62.3285   87.9565   11.2122 C.3     1  UNL1        0.1689
      3 S          62.0072   89.3864   10.8928 S.O2    1  UNL1       -0.0085
      4 O          61.4605   90.5801   10.1674 O.2     1  UNL1       -0.1729
      5 O          61.3582   88.7062    9.7240 O.2     1  UNL1       -0.1729
      6 C          62.4664   90.4811   11.8096 C.3     1  UNL1        0.1536
      7 C          63.2469   90.1460   13.0459 C.3     1  UNL1        0.0562
      8 C          63.5682   88.7161   13.3654 C.3     1  UNL1        0.1285
      9 O          64.3487   88.3809   14.6018 O.3     1  UNL1       -0.3830
     10 H          64.4684   87.4199   14.6579 H       1  UNL1        0.2104
     11 N          63.4303   86.1913   12.7680 N.3     1  UNL1       -0.2915
     12 H          64.4348   86.0777   12.6318 H       1  UNL1        0.1236
     13 C          62.7622   85.0845   12.0074 C.3     1  UNL1        0.0957
     14 C          62.6434   81.1326   12.3511 C.ar    1  UNL1       -0.0207
     15 C          62.4323   80.9828   13.8286 C.ar    1  UNL1       -0.0042
     16 C          62.3312   82.2002   14.6990 C.ar    1  UNL1       -0.0006
     17 C          62.4411   83.5674   14.0920 C.ar    1  UNL1       -0.0029
     18 C          62.6522   83.7172   12.6145 C.ar    1  UNL1       -0.0067
     19 C          62.7534   82.4998   11.7441 C.ar    1  UNL1       -0.0071
     20 C          63.0991   80.7822   10.3092 C.3     1  UNL1        0.0069
     21 C          62.7445   79.9152   11.4807 C.3     1  UNL1        0.0460
     22 C          62.3900   79.0481   12.6522 C.3     1  UNL1        0.0069
     23 C          62.8457   78.6977   10.6103 C.3     1  UNL1        0.1410
     24 O          63.0935   78.8466    9.1384 O.3     1  UNL1       -0.3817
     25 H          62.3305   79.2793    8.7242 H       1  UNL1        0.2105
     26 C          63.7060   91.2408   13.9628 C.3     1  UNL1        0.0307
     27 C          65.1653   91.5734   14.0619 C.ar    1  UNL1       -0.0167
     28 C          65.8044   91.7512   15.4073 C.ar    1  UNL1        0.0268
     29 C          67.2637   92.0838   15.5063 C.ar    1  UNL1        0.1556
     30 F          67.9027   92.2615   16.8516 F       1  UNL1       -0.2028
     31 C          68.0839   92.2386   14.2600 C.ar    1  UNL1        0.1037
     32 N          69.5432   92.5712   14.3591 N.pl3   1  UNL1       -0.3529
     33 C          67.4449   92.0608   12.9147 C.ar    1  UNL1        0.1538
     34 C          65.9855   91.7282   12.8156 C.ar    1  UNL1        0.0341
     35 H          69.9627   92.6879   15.2421 H       1  UNL1        0.1425
     36 H          70.0815   92.6728   13.5411 H       1  UNL1        0.1425
     37 O          68.2651   92.2156   11.6684 O.3     1  UNL1       -0.4621
     38 C          67.6580   92.8312   10.4426 C.3     1  UNL1        0.3551
     39 C          68.2877   92.6062    9.0999 C.3     1  UNL1        0.4428
     40 F          68.9174   92.3811    7.7572 F       1  UNL1       -0.1661
     41 F          68.2159   91.1234    9.3148 F       1  UNL1       -0.1661
     42 F          68.3594   94.0890    8.8850 F       1  UNL1       -0.1661
     43 C          66.4212   93.6718   10.5595 C.3     1  UNL1        0.4428
     44 F          65.1844   94.5124   10.6765 F       1  UNL1       -0.1661
     45 F          67.2152   94.7448   11.2437 F       1  UNL1       -0.1661
     46 F          65.6272   92.5988    9.8753 F       1  UNL1       -0.1661
@<TRIPOS>BOND
     1    20    21    1
     2    21    22    1
     3    21    23    1
     4    23    24    1
     5    21    14    1
     6    14    15   ar
     7    15    16   ar
     8    16    17   ar
     9    17    18   ar
    10    18    13    1
    11    13    11    1
    12     1    11    1
    13     1     2    1
    14     2     3    1
    15     3     4    2
    16     3     5    2
    17     3     6    1
    18     6     7    1
    19     7    26    1
    20    26    27    1
    21    27    28   ar
    22    28    29   ar
    23    29    30    1
    24    29    31   ar
    25    31    32    1
    26    31    33   ar
    27    33    37    1
    28    37    38    1
    29    38    39    1
    30    39    40    1
    31    39    41    1
    32    39    42    1
    33    38    43    1
    34    43    44    1
    35    43    45    1
    36    43    46    1
    37    33    34   ar
    38     7     8    1
    39     8     9    1
    40    18    19   ar
    41    19    14   ar
    42     8     1    1
    43    34    27   ar
    44    24    25    1
    45    11    12    1
    46    32    35    1
    47    32    36    1
    48     9    10    1
@<TRIPOS>MOLECULE
*****
 46 48 0 0 0
SMALL
GASTEIGER

@<TRIPOS>ATOM
      1 C          61.0376   87.0225    9.7818 C.3     1  UNL1        0.1054
      2 C          60.3509   87.3577    8.4911 C.3     1  UNL1        0.1689
      3 S          60.0275   88.7850    8.1622 S.O2    1  UNL1       -0.0085
      4 O          59.5162   89.9767    7.4084 O.2     1  UNL1       -0.1729
      5 O          59.4865   88.1068    6.9385 O.2     1  UNL1       -0.1729
      6 C          60.3908   89.8771    9.1241 C.3     1  UNL1        0.1536
      7 C          61.0776   89.5420   10.4148 C.3     1  UNL1        0.0562
      8 C          61.4010   88.1147   10.7437 C.3     1  UNL1        0.1285
      9 O          62.0878   87.7795   12.0345 O.3     1  UNL1       -0.3830
     10 H          62.2217   86.8203   12.0898 H       1  UNL1        0.2104
     11 N          61.3611   85.5952   10.1107 N.3     1  UNL1       -0.2915
     12 H          60.9341   85.3975   11.0157 H       1  UNL1        0.1236
     13 C          62.7912   85.1517   10.2005 C.3     1  UNL1        0.0957
     14 C          63.6110   84.4466   14.0190 C.ar    1  UNL1       -0.0207
     15 C          64.2842   83.1097   13.9222 C.ar    1  UNL1       -0.0042
     16 C          64.4598   82.4535   12.5849 C.ar    1  UNL1       -0.0006
     17 C          63.9621   83.1341   11.3443 C.ar    1  UNL1       -0.0029
     18 C          63.2889   84.4710   11.4411 C.ar    1  UNL1       -0.0067
     19 C          63.1133   85.1272   12.7785 C.ar    1  UNL1       -0.0071
     20 C          62.3570   84.1178   15.6981 C.3     1  UNL1        0.0069
     21 C          63.4354   85.1029   15.3564 C.3     1  UNL1        0.0460
     22 C          64.5138   86.0879   15.0146 C.3     1  UNL1        0.0069
     23 C          63.2598   85.7591   16.6937 C.3     1  UNL1        0.1410
     24 O          61.8822   85.9974   17.2371 O.3     1  UNL1       -0.3817
     25 H          61.4211   86.6422   16.6781 H       1  UNL1        0.2105
     26 C          61.4409   90.6341   11.3767 C.3     1  UNL1        0.0307
     27 C          62.8646   91.0934   11.4870 C.ar    1  UNL1       -0.0167
     28 C          63.4883   91.8778   10.3709 C.ar    1  UNL1        0.0268
     29 C          64.9119   92.3371   10.4812 C.ar    1  UNL1        0.1556
     30 F          65.5355   93.1215    9.3651 F       1  UNL1       -0.2028
     31 C          65.7120   92.0119   11.7077 C.ar    1  UNL1        0.1037
     32 N          67.1356   92.4712   11.8180 N.pl3   1  UNL1       -0.3529
     33 C          65.0884   91.2275   12.8238 C.ar    1  UNL1        0.1538
     34 C          63.6646   90.7682   12.7135 C.ar    1  UNL1        0.0341
     35 H          67.5450   92.9860   11.0855 H       1  UNL1        0.1425
     36 H          67.6607   92.2578   12.6230 H       1  UNL1        0.1425
     37 O          65.8884   90.9023   14.0502 O.3     1  UNL1       -0.4621
     38 C          65.7574   91.7533   15.2786 C.3     1  UNL1        0.3551
     39 C          64.6206   91.5264   16.2305 C.3     1  UNL1        0.4428
     40 F          63.4837   91.2994   17.1823 F       1  UNL1       -0.1661
     41 F          64.3825   90.1752   15.6240 F       1  UNL1       -0.1661
     42 F          64.8586   92.8775   16.8369 F       1  UNL1       -0.1661
     43 C          66.7633   92.8312   15.5550 C.3     1  UNL1        0.4428
     44 F          67.7691   93.9090   15.8314 F       1  UNL1       -0.1661
     45 F          66.0725   93.7281   14.5710 F       1  UNL1       -0.1661
     46 F          67.4540   91.9342   16.5390 F       1  UNL1       -0.1661
@<TRIPOS>BOND
     1    20    21    1
     2    21    22    1
     3    21    23    1
     4    23    24    1
     5    21    14    1
     6    14    15   ar
     7    15    16   ar
     8    16    17   ar
     9    17    18   ar
    10    18    13    1
    11    13    11    1
    12     1    11    1
    13     1     2    1
    14     2     3    1
    15     3     4    2
    16     3     5    2
    17     3     6    1
    18     6     7    1
    19     7    26    1
    20    26    27    1
    21    27    28   ar
    22    28    29   ar
    23    29    30    1
    24    29    31   ar
    25    31    32    1
    26    31    33   ar
    27    33    37    1
    28    37    38    1
    29    38    39    1
    30    39    40    1
    31    39    41    1
    32    39    42    1
    33    38    43    1
    34    43    44    1
    35    43    45    1
    36    43    46    1
    37    33    34   ar
    38     7     8    1
    39     8     9    1
    40    18    19   ar
    41    19    14   ar
    42     8     1    1
    43    34    27   ar
    44    24    25    1
    45    11    12    1
    46    32    35    1
    47    32    36    1
    48     9    10    1
@<TRIPOS>MOLECULE
*****
 46 48 0 0 0
SMALL
GASTEIGER

@<TRIPOS>ATOM
      1 C          62.0865   87.5275   10.2722 C.3     1  UNL1        0.1054
      2 C          61.0484   88.2201    9.4399 C.3     1  UNL1        0.1689
      3 S          60.4985   89.5454    9.8771 S.O2    1  UNL1       -0.0085
      4 O          59.6804   90.8027    9.8729 O.2     1  UNL1       -0.1729
      5 O          59.7262   89.3495    8.6062 O.2     1  UNL1       -0.1729
      6 C          60.9867   90.1781   11.1465 C.3     1  UNL1        0.1536
      7 C          62.0248   89.4855   11.9788 C.3     1  UNL1        0.0562
      8 C          62.5746   88.1602   11.5416 C.3     1  UNL1        0.1285
      9 O          63.6127   87.4674   12.3738 O.3     1  UNL1       -0.3830
     10 H          63.8582   86.6289   11.9525 H       1  UNL1        0.2104
     11 N          62.6364   86.2021    9.8350 N.3     1  UNL1       -0.2915
     12 H          62.4833   86.1373    8.8286 H       1  UNL1        0.1236
     13 C          62.1056   84.9347   10.4363 C.3     1  UNL1        0.0957
     14 C          63.4467   84.3088   14.1187 C.ar    1  UNL1       -0.0207
     15 C          64.2236   83.0403   13.9256 C.ar    1  UNL1       -0.0042
     16 C          64.2946   82.4033   12.5695 C.ar    1  UNL1       -0.0006
     17 C          63.5886   83.0347   11.4064 C.ar    1  UNL1       -0.0029
     18 C          62.8116   84.3032   11.5995 C.ar    1  UNL1       -0.0067
     19 C          62.7406   84.9402   12.9556 C.ar    1  UNL1       -0.0071
     20 C          62.1361   84.1582   15.7800 C.3     1  UNL1        0.0069
     21 C          63.3757   84.9458   15.4749 C.3     1  UNL1        0.0460
     22 C          64.6153   85.7334   15.1698 C.3     1  UNL1        0.0069
     23 C          63.3047   85.5828   16.8310 C.3     1  UNL1        0.1410
     24 O          61.9727   85.9226   17.4313 O.3     1  UNL1       -0.3817
     25 H          61.5479   86.6168   16.9035 H       1  UNL1        0.2105
     26 C          62.5129   90.1181   13.2482 C.3     1  UNL1        0.0307
     27 C          63.8107   90.8701   13.2605 C.ar    1  UNL1       -0.0167
     28 C          64.8814   90.5022   14.2446 C.ar    1  UNL1        0.0268
     29 C          66.1792   91.2542   14.2570 C.ar    1  UNL1        0.1556
     30 F          67.2498   90.8863   15.2411 F       1  UNL1       -0.2028
     31 C          66.4064   92.3741   13.2853 C.ar    1  UNL1        0.1037
     32 N          67.7042   93.1261   13.2977 N.pl3   1  UNL1       -0.3529
     33 C          65.3358   92.7420   12.3013 C.ar    1  UNL1        0.1538
     34 C          64.0379   91.9900   12.2888 C.ar    1  UNL1        0.0341
     35 H          68.4069   92.8847   13.9436 H       1  UNL1        0.1425
     36 H          67.8533   93.8611   12.6599 H       1  UNL1        0.1425
     37 O          65.5630   93.8619   11.3296 O.3     1  UNL1       -0.4621
     38 C          66.6902   93.7819   10.3430 C.3     1  UNL1        0.3551
     39 C          67.1949   95.0281    9.6782 C.3     1  UNL1        0.4428
     40 F          67.6997   96.2744    9.0134 F       1  UNL1       -0.1661
     41 F          67.2387   94.3087    8.3627 F       1  UNL1       -0.1661
     42 F          67.1512   95.7476   10.9937 F       1  UNL1       -0.1661
     43 C          67.3125   92.4555   10.0214 C.3     1  UNL1        0.4428
     44 F          67.9348   91.1292    9.6997 F       1  UNL1       -0.1661
     45 F          68.6764   93.0474   10.2196 F       1  UNL1       -0.1661
     46 F          65.9486   91.8636    9.8231 F       1  UNL1       -0.1661
@<TRIPOS>BOND
     1    20    21    1
     2    21    22    1
     3    21    23    1
     4    23    24    1
     5    21    14    1
     6    14    15   ar
     7    15    16   ar
     8    16    17   ar
     9    17    18   ar
    10    18    13    1
    11    13    11    1
    12     1    11    1
    13     1     2    1
    14     2     3    1
    15     3     4    2
    16     3     5    2
    17     3     6    1
    18     6     7    1
    19     7    26    1
    20    26    27    1
    21    27    28   ar
    22    28    29   ar
    23    29    30    1
    24    29    31   ar
    25    31    32    1
    26    31    33   ar
    27    33    37    1
    28    37    38    1
    29    38    39    1
    30    39    40    1
    31    39    41    1
    32    39    42    1
    33    38    43    1
    34    43    44    1
    35    43    45    1
    36    43    46    1
    37    33    34   ar
    38     7     8    1
    39     8     9    1
    40    18    19   ar
    41    19    14   ar
    42     8     1    1
    43    34    27   ar
    44    24    25    1
    45    11    12    1
    46    32    35    1
    47    32    36    1
    48     9    10    1
@<TRIPOS>MOLECULE
*****
 46 48 0 0 0
SMALL
GASTEIGER

@<TRIPOS>ATOM
      1 C          61.7725   86.9661   10.2011 C.3     1  UNL1        0.1054
      2 C          60.9086   87.0240    8.9762 C.3     1  UNL1        0.1689
      3 S          60.3358   88.3344    8.5238 S.O2    1  UNL1       -0.0085
      4 O          59.5694   89.3299    7.7043 O.2     1  UNL1       -0.1729
      5 O          59.7786   87.4278    7.4667 O.2     1  UNL1       -0.1729
      6 C          60.6268   89.5869    9.2963 C.3     1  UNL1        0.1536
      7 C          61.4907   89.5289   10.5212 C.3     1  UNL1        0.0562
      8 C          62.0635   88.2185   10.9736 C.3     1  UNL1        0.1285
      9 O          62.9274   88.1605   12.1985 O.3     1  UNL1       -0.3830
     10 H          63.2128   87.2459   12.3498 H       1  UNL1        0.2104
     11 N          62.3454   85.6557   10.6536 N.3     1  UNL1       -0.2915
     12 H          61.6274   84.9492   10.4928 H       1  UNL1        0.1236
     13 C          62.8077   85.4885   12.0707 C.3     1  UNL1        0.0957
     14 C          62.7019   81.5509   12.5540 C.ar    1  UNL1       -0.0207
     15 C          62.5915   81.4513   14.0466 C.ar    1  UNL1       -0.0042
     16 C          62.5531   82.6975   14.8806 C.ar    1  UNL1       -0.0006
     17 C          62.6252   84.0432   14.2220 C.ar    1  UNL1       -0.0029
     18 C          62.7356   84.1428   12.7294 C.ar    1  UNL1       -0.0067
     19 C          62.7739   82.8966   11.8954 C.ar    1  UNL1       -0.0071
     20 C          62.3225   79.4946   12.9113 C.3     1  UNL1        0.0069
     21 C          62.7402   80.3047   11.7200 C.3     1  UNL1        0.0460
     22 C          63.1580   81.1148   10.5287 C.3     1  UNL1        0.0069
     23 C          62.7786   79.0585   10.8860 C.3     1  UNL1        0.1410
     24 O          62.8172   79.1582    9.3899 O.3     1  UNL1       -0.3817
     25 H          61.9859   79.5421    9.0699 H       1  UNL1        0.2105
     26 C          61.7817   90.7813   11.2936 C.3     1  UNL1        0.0307
     27 C          63.1959   91.2578   11.4446 C.ar    1  UNL1       -0.0167
     28 C          63.8383   92.0588   10.3510 C.ar    1  UNL1        0.0268
     29 C          65.2526   92.5353   10.5020 C.ar    1  UNL1        0.1556
     30 F          65.8949   93.3361    9.4084 F       1  UNL1       -0.2028
     31 C          66.0245   92.2109   11.7466 C.ar    1  UNL1        0.1037
     32 N          67.4387   92.6874   11.8976 N.pl3   1  UNL1       -0.3529
     33 C          65.3821   91.4100   12.8402 C.ar    1  UNL1        0.1538
     34 C          63.9678   90.9335   12.6892 C.ar    1  UNL1        0.0341
     35 H          67.8603   93.2130   11.1798 H       1  UNL1        0.1425
     36 H          67.9453   92.4745   12.7145 H       1  UNL1        0.1425
     37 O          66.1540   91.0856   14.0847 O.3     1  UNL1       -0.4621
     38 C          65.9609   91.9097   15.3232 C.3     1  UNL1        0.3551
     39 C          66.9522   92.9793   15.6744 C.3     1  UNL1        0.4428
     40 F          67.9435   94.0489   16.0257 F       1  UNL1       -0.1661
     41 F          66.3165   93.8973   14.6729 F       1  UNL1       -0.1661
     42 F          67.5879   92.0612   16.6760 F       1  UNL1       -0.1661
     43 C          64.7766   91.6642   16.2103 C.3     1  UNL1        0.4428
     44 F          63.5923   91.4186   17.0975 F       1  UNL1       -0.1661
     45 F          64.9690   93.0118   16.8402 F       1  UNL1       -0.1661
     46 F          64.5842   90.3165   15.5805 F       1  UNL1       -0.1661
@<TRIPOS>BOND
     1    20    21    1
     2    21    22    1
     3    21    23    1
     4    23    24    1
     5    21    14    1
     6    14    15   ar
     7    15    16   ar
     8    16    17   ar
     9    17    18   ar
    10    18    13    1
    11    13    11    1
    12     1    11    1
    13     1     2    1
    14     2     3    1
    15     3     4    2
    16     3     5    2
    17     3     6    1
    18     6     7    1
    19     7    26    1
    20    26    27    1
    21    27    28   ar
    22    28    29   ar
    23    29    30    1
    24    29    31   ar
    25    31    32    1
    26    31    33   ar
    27    33    37    1
    28    37    38    1
    29    38    39    1
    30    39    40    1
    31    39    41    1
    32    39    42    1
    33    38    43    1
    34    43    44    1
    35    43    45    1
    36    43    46    1
    37    33    34   ar
    38     7     8    1
    39     8     9    1
    40    18    19   ar
    41    19    14   ar
    42     8     1    1
    43    34    27   ar
    44    24    25    1
    45    11    12    1
    46    32    35    1
    47    32    36    1
    48     9    10    1
