@<TRIPOS>MOLECULE
*****
 35 38 0 0 0
SMALL
GASTEIGER

@<TRIPOS>ATOM
      1 N          63.6748   86.3151   14.8525 N.am    1  UNL1       -0.2809
      2 C          63.4240   86.0039   13.4067 C.2     1  UNL1        0.2471
      3 O          63.2835   87.1186   12.4130 O.2     1  UNL1       -0.2701
      4 H          63.7671   85.5834   15.5047 H       1  UNL1        0.1552
      5 C          62.3075   87.1999   17.3719 C.3     1  UNL1        0.0324
      6 C          63.1014   88.1835   16.5643 C.ar    1  UNL1       -0.0061
      7 C          63.2116   89.6095   17.0163 C.ar    1  UNL1        0.0266
      8 C          64.0055   90.5931   16.2086 C.ar    1  UNL1        0.1400
      9 F          64.1157   92.0191   16.6607 F       1  UNL1       -0.2042
     10 C          64.6891   90.1507   14.9489 C.ar    1  UNL1        0.0334
     11 C          64.5789   88.7247   14.4969 C.ar    1  UNL1        0.0167
     12 C          63.7850   87.7411   15.3046 C.ar    1  UNL1        0.0466
     13 C          65.4830   91.1343   14.1412 C.ar    1  UNL1        0.0614
     14 C          66.8220   91.5998   14.6314 C.ar    1  UNL1        0.0273
     15 C          67.6159   92.5834   13.8237 C.ar    1  UNL1        0.1204
     16 N          67.0708   93.1014   12.5259 N.ar    1  UNL1       -0.1652
     17 N          65.7318   92.6359   12.0357 N.ar    1  UNL1       -0.2145
     18 C          65.1866   93.1539   10.7378 C.3     1  UNL1        0.1571
     19 C          64.9379   91.6523   12.8434 C.ar    1  UNL1        0.2765
     20 O          63.5988   91.1867   12.3532 O.2     1  UNL1       -0.2655
     21 C          63.3138   84.5778   12.9547 C.2     1  UNL1        0.0505
     22 C          63.8580   83.4747   13.8132 C.2     1  UNL1        0.0680
     23 N          63.7478   82.0487   13.3611 N.am    1  UNL1       -0.2558
     24 C          64.2920   80.9456   14.2197 C.3     1  UNL1        0.1200
     25 C          63.0935   81.7258   12.0506 C.2     1  UNL1        0.2301
     26 O          62.9832   80.2998   11.5985 O.2     1  UNL1       -0.2745
     27 C          62.5493   82.8289   11.1921 C.3     1  UNL1        0.0945
     28 C          62.6595   84.2549   11.6441 C.3     1  UNL1        0.0594
     29 C          62.1153   85.3580   10.7856 C.ar    1  UNL1       -0.0176
     30 C          62.6397   85.5536    9.3940 C.ar    1  UNL1       -0.0016
     31 C          62.0956   86.6567    8.5355 C.ar    1  UNL1        0.0293
     32 C          61.0269   87.5643    9.0686 C.ar    1  UNL1        0.1401
     33 F          60.4828   88.6674    8.2101 F       1  UNL1       -0.2042
     34 C          60.5025   87.3687   10.4603 C.ar    1  UNL1        0.0293
     35 C          61.0467   86.2656   11.3188 C.ar    1  UNL1       -0.0016
@<TRIPOS>BOND
     1     5     6    1
     2     6     7   ar
     3     7     8   ar
     4     8     9    1
     5     8    10   ar
     6    10    13    1
     7    13    14   ar
     8    14    15   ar
     9    15    16   ar
    10    16    17   ar
    11    17    18    1
    12    17    19   ar
    13    19    20    2
    14    10    11   ar
    15    11    12   ar
    16    12     1    1
    17     1     2   am
    18     2     3    2
    19     2    21    1
    20    21    22    2
    21    22    23    1
    22    23    24    1
    23    23    25   am
    24    25    26    2
    25    25    27    1
    26    27    28    1
    27    28    29    1
    28    29    30   ar
    29    30    31   ar
    30    31    32   ar
    31    32    33    1
    32    32    34   ar
    33    34    35   ar
    34    12     6   ar
    35    28    21    1
    36    35    29   ar
    37    19    13   ar
    38     1     4    1
@<TRIPOS>MOLECULE
*****
 35 38 0 0 0
SMALL
GASTEIGER

@<TRIPOS>ATOM
      1 N          62.2077   85.5640   12.0352 N.am    1  UNL1       -0.2809
      2 C          63.0349   84.4976   11.3807 C.2     1  UNL1        0.2471
      3 O          63.9271   84.8436   10.2256 O.2     1  UNL1       -0.2701
      4 H          61.6221   85.3369   12.7934 H       1  UNL1        0.1552
      5 C          60.8481   86.3095    9.4670 C.3     1  UNL1        0.0324
      6 C          61.5929   87.3493   10.2506 C.ar    1  UNL1       -0.0061
      7 C          61.6580   88.7618    9.7501 C.ar    1  UNL1        0.0266
      8 C          62.4029   89.8016   10.5337 C.ar    1  UNL1        0.1400
      9 F          62.4679   91.2142   10.0331 F       1  UNL1       -0.2042
     10 C          63.0827   89.4289   11.8178 C.ar    1  UNL1        0.0334
     11 C          63.0176   88.0164   12.3183 C.ar    1  UNL1        0.0167
     12 C          62.2728   86.9766   11.5347 C.ar    1  UNL1        0.0466
     13 C          63.8276   90.4687   12.6013 C.ar    1  UNL1        0.0614
     14 C          64.7569   91.4139   11.8993 C.ar    1  UNL1        0.0273
     15 C          65.5018   92.4537   12.6829 C.ar    1  UNL1        0.1204
     16 N          65.3173   92.5483   14.1685 N.ar    1  UNL1       -0.1652
     17 N          64.3880   91.6031   14.8705 N.ar    1  UNL1       -0.2145
     18 C          64.2035   91.6976   16.3562 C.3     1  UNL1        0.1571
     19 C          63.6431   90.5633   14.0869 C.ar    1  UNL1        0.2765
     20 O          62.7137   89.6180   14.7890 O.2     1  UNL1       -0.2655
     21 C          62.9699   83.0850   11.8813 C.2     1  UNL1        0.0505
     22 C          62.8523   81.9493   10.9085 C.2     1  UNL1        0.0680
     23 N          62.7873   80.5368   11.4090 N.am    1  UNL1       -0.2558
     24 C          62.6697   79.4010   10.4362 C.3     1  UNL1        0.1200
     25 C          62.8398   80.2600   12.8822 C.2     1  UNL1        0.2301
     26 O          62.7748   78.8474   13.3828 O.2     1  UNL1       -0.2745
     27 C          62.9574   81.3957   13.8550 C.3     1  UNL1        0.0945
     28 C          63.0224   82.8082   13.3546 C.3     1  UNL1        0.0594
     29 C          63.1400   83.9439   14.3273 C.ar    1  UNL1       -0.0176
     30 C          64.3450   84.8366   14.2960 C.ar    1  UNL1       -0.0016
     31 C          64.4626   85.9723   15.2688 C.ar    1  UNL1        0.0293
     32 C          63.3751   86.2154   16.2729 C.ar    1  UNL1        0.1401
     33 F          63.4927   87.3511   17.2457 F       1  UNL1       -0.2042
     34 C          62.1701   85.3227   16.3042 C.ar    1  UNL1        0.0293
     35 C          62.0525   84.1870   15.3314 C.ar    1  UNL1       -0.0016
@<TRIPOS>BOND
     1     5     6    1
     2     6     7   ar
     3     7     8   ar
     4     8     9    1
     5     8    10   ar
     6    10    13    1
     7    13    14   ar
     8    14    15   ar
     9    15    16   ar
    10    16    17   ar
    11    17    18    1
    12    17    19   ar
    13    19    20    2
    14    10    11   ar
    15    11    12   ar
    16    12     1    1
    17     1     2   am
    18     2     3    2
    19     2    21    1
    20    21    22    2
    21    22    23    1
    22    23    24    1
    23    23    25   am
    24    25    26    2
    25    25    27    1
    26    27    28    1
    27    28    29    1
    28    29    30   ar
    29    30    31   ar
    30    31    32   ar
    31    32    33    1
    32    32    34   ar
    33    34    35   ar
    34    12     6   ar
    35    28    21    1
    36    35    29   ar
    37    19    13   ar
    38     1     4    1
@<TRIPOS>MOLECULE
*****
 35 38 0 0 0
SMALL
GASTEIGER

@<TRIPOS>ATOM
      1 N          64.3781   88.4316   13.8719 N.am    1  UNL1       -0.2809
      2 C          63.4918   89.5926   13.5306 C.2     1  UNL1        0.2471
      3 O          62.0464   89.5760   13.9310 O.2     1  UNL1       -0.2701
      4 H          65.3268   88.4426   13.6091 H       1  UNL1        0.1552
      5 C          63.5459   88.7222   16.7395 C.3     1  UNL1        0.0324
      6 C          63.4028   87.3991   16.0475 C.ar    1  UNL1       -0.0061
      7 C          62.8436   86.2214   16.7892 C.ar    1  UNL1        0.0266
      8 C          62.7005   84.8983   16.0971 C.ar    1  UNL1        0.1400
      9 F          62.1413   83.7205   16.8389 F       1  UNL1       -0.2042
     10 C          63.1166   84.7530   14.6633 C.ar    1  UNL1        0.0334
     11 C          63.6757   85.9307   13.9216 C.ar    1  UNL1        0.0167
     12 C          63.8188   87.2538   14.6137 C.ar    1  UNL1        0.0466
     13 C          62.9735   83.4299   13.9713 C.ar    1  UNL1        0.0614
     14 C          62.4242   82.2494   14.7161 C.ar    1  UNL1        0.0273
     15 C          62.2811   80.9263   14.0240 C.ar    1  UNL1        0.1204
     16 N          62.6872   80.7837   12.5872 N.ar    1  UNL1       -0.1652
     17 N          63.2365   81.9641   11.8423 N.ar    1  UNL1       -0.2145
     18 C          63.6426   81.8216   10.4054 C.3     1  UNL1        0.1571
     19 C          63.3796   83.2872   12.5344 C.ar    1  UNL1        0.2765
     20 O          63.9288   84.4677   11.7895 O.2     1  UNL1       -0.2655
     21 C          64.0510   90.7704   12.7888 C.2     1  UNL1        0.0505
     22 C          65.0928   91.6365   13.4328 C.2     1  UNL1        0.0680
     23 N          65.6520   92.8143   12.6911 N.am    1  UNL1       -0.2558
     24 C          66.6937   93.6804   13.3350 C.3     1  UNL1        0.1200
     25 C          65.1695   93.1259   11.3054 C.2     1  UNL1        0.2301
     26 O          65.7287   94.3037   10.5636 O.2     1  UNL1       -0.2745
     27 C          64.1277   92.2598   10.6615 C.3     1  UNL1        0.0945
     28 C          63.5685   91.0821   11.4032 C.3     1  UNL1        0.0594
     29 C          62.5268   90.2160   10.7593 C.ar    1  UNL1       -0.0176
     30 C          62.9046   88.8739   10.2061 C.ar    1  UNL1       -0.0016
     31 C          61.8628   88.0078    9.5622 C.ar    1  UNL1        0.0293
     32 C          60.4433   88.4837    9.4714 C.ar    1  UNL1        0.1401
     33 F          59.4015   87.6176    8.8275 F       1  UNL1       -0.2042
     34 C          60.0655   89.8258   10.0246 C.ar    1  UNL1        0.0293
     35 C          61.1072   90.6919   10.6686 C.ar    1  UNL1       -0.0016
@<TRIPOS>BOND
     1     5     6    1
     2     6     7   ar
     3     7     8   ar
     4     8     9    1
     5     8    10   ar
     6    10    13    1
     7    13    14   ar
     8    14    15   ar
     9    15    16   ar
    10    16    17   ar
    11    17    18    1
    12    17    19   ar
    13    19    20    2
    14    10    11   ar
    15    11    12   ar
    16    12     1    1
    17     1     2   am
    18     2     3    2
    19     2    21    1
    20    21    22    2
    21    22    23    1
    22    23    24    1
    23    23    25   am
    24    25    26    2
    25    25    27    1
    26    27    28    1
    27    28    29    1
    28    29    30   ar
    29    30    31   ar
    30    31    32   ar
    31    32    33    1
    32    32    34   ar
    33    34    35   ar
    34    12     6   ar
    35    28    21    1
    36    35    29   ar
    37    19    13   ar
    38     1     4    1
@<TRIPOS>MOLECULE
*****
 35 38 0 0 0
SMALL
GASTEIGER

@<TRIPOS>ATOM
      1 N          62.2260   85.5770   12.0218 N.am    1  UNL1       -0.2809
      2 C          63.0456   84.5498   11.2985 C.2     1  UNL1        0.2471
      3 O          63.9188   84.9601   10.1500 O.2     1  UNL1       -0.2701
      4 H          61.6529   85.3078   12.7756 H       1  UNL1        0.1552
      5 C          60.7922   86.4614    9.5393 C.3     1  UNL1        0.0324
      6 C          61.5627   87.4566   10.3553 C.ar    1  UNL1       -0.0061
      7 C          61.6164   88.8941    9.9300 C.ar    1  UNL1        0.0266
      8 C          62.3869   89.8894   10.7459 C.ar    1  UNL1        0.1400
      9 F          62.4405   91.3268   10.3206 F       1  UNL1       -0.2042
     10 C          63.1037   89.4472   11.9871 C.ar    1  UNL1        0.0334
     11 C          63.0501   88.0098   12.4124 C.ar    1  UNL1        0.0167
     12 C          62.2796   87.0145   11.5964 C.ar    1  UNL1        0.0466
     13 C          63.8742   90.4425   12.8030 C.ar    1  UNL1        0.0614
     14 C          63.8681   90.3503   14.3001 C.ar    1  UNL1        0.0273
     15 C          64.6386   91.3456   15.1161 C.ar    1  UNL1        0.1204
     16 N          65.4152   92.4331   14.4349 N.ar    1  UNL1       -0.1652
     17 N          65.4214   92.5253   12.9378 N.ar    1  UNL1       -0.2145
     18 C          66.1982   93.6128   12.2565 C.3     1  UNL1        0.1571
     19 C          64.6509   91.5300   12.1218 C.ar    1  UNL1        0.2765
     20 O          64.6572   91.6222   10.6246 O.2     1  UNL1       -0.2655
     21 C          62.9920   83.1123   11.7238 C.2     1  UNL1        0.0505
     22 C          62.8774   82.0289   10.6928 C.2     1  UNL1        0.0680
     23 N          62.8238   80.5915   11.1180 N.am    1  UNL1       -0.2558
     24 C          62.7091   79.5081   10.0870 C.3     1  UNL1        0.1200
     25 C          62.8848   80.2375   12.5743 C.2     1  UNL1        0.2301
     26 O          62.8312   78.8000   12.9996 O.2     1  UNL1       -0.2745
     27 C          62.9994   81.3209   13.6054 C.3     1  UNL1        0.0945
     28 C          63.0530   82.7583   13.1802 C.3     1  UNL1        0.0594
     29 C          63.1676   83.8417   14.2112 C.ar    1  UNL1       -0.0176
     30 C          62.0715   84.0400   15.2158 C.ar    1  UNL1       -0.0016
     31 C          62.1862   85.1234   16.2469 C.ar    1  UNL1        0.0293
     32 C          63.3969   86.0085   16.2734 C.ar    1  UNL1        0.1401
     33 F          63.5115   87.0919   17.3044 F       1  UNL1       -0.2042
     34 C          64.4930   85.8102   15.2688 C.ar    1  UNL1        0.0293
     35 C          64.3783   84.7268   14.2377 C.ar    1  UNL1       -0.0016
@<TRIPOS>BOND
     1     5     6    1
     2     6     7   ar
     3     7     8   ar
     4     8     9    1
     5     8    10   ar
     6    10    13    1
     7    13    14   ar
     8    14    15   ar
     9    15    16   ar
    10    16    17   ar
    11    17    18    1
    12    17    19   ar
    13    19    20    2
    14    10    11   ar
    15    11    12   ar
    16    12     1    1
    17     1     2   am
    18     2     3    2
    19     2    21    1
    20    21    22    2
    21    22    23    1
    22    23    24    1
    23    23    25   am
    24    25    26    2
    25    25    27    1
    26    27    28    1
    27    28    29    1
    28    29    30   ar
    29    30    31   ar
    30    31    32   ar
    31    32    33    1
    32    32    34   ar
    33    34    35   ar
    34    12     6   ar
    35    28    21    1
    36    35    29   ar
    37    19    13   ar
    38     1     4    1
@<TRIPOS>MOLECULE
*****
 35 38 0 0 0
SMALL
GASTEIGER

@<TRIPOS>ATOM
      1 N          62.3863   90.5795   11.6225 N.am    1  UNL1       -0.2809
      2 C          63.5317   90.0636   12.4421 C.2     1  UNL1        0.2471
      3 O          63.7718   88.5868   12.5496 O.2     1  UNL1       -0.2701
      4 H          62.2287   91.5487   11.5520 H       1  UNL1        0.1552
      5 C          59.4326   91.0950   11.5222 C.3     1  UNL1        0.0324
      6 C          60.0042   89.8764   10.8601 C.ar    1  UNL1       -0.0061
      7 C          59.0990   88.9156   10.1478 C.ar    1  UNL1        0.0266
      8 C          59.6706   87.6970    9.4857 C.ar    1  UNL1        0.1400
      9 F          58.7652   86.7362    8.7734 F       1  UNL1       -0.2042
     10 C          61.1474   87.4393    9.5358 C.ar    1  UNL1        0.0334
     11 C          62.0526   88.4001   10.2481 C.ar    1  UNL1        0.0167
     12 C          61.4810   89.6187   10.9102 C.ar    1  UNL1        0.0466
     13 C          61.7189   86.2207    8.8737 C.ar    1  UNL1        0.0614
     14 C          61.4174   85.9397    7.4315 C.ar    1  UNL1        0.0273
     15 C          61.9890   84.7212    6.7693 C.ar    1  UNL1        0.1204
     16 N          62.8621   83.7836    7.5494 N.ar    1  UNL1       -0.1652
     17 N          63.1636   84.0646    8.9917 N.ar    1  UNL1       -0.2145
     18 C          64.0368   83.1270    9.7719 C.3     1  UNL1        0.1571
     19 C          62.5921   85.2832    9.6538 C.ar    1  UNL1        0.2765
     20 O          62.8936   85.5641   11.0961 O.2     1  UNL1       -0.2655
     21 C          64.4370   91.0244   13.1544 C.2     1  UNL1        0.0505
     22 C          64.9703   92.2270   12.4337 C.2     1  UNL1        0.0680
     23 N          65.8756   93.1878   13.1459 N.am    1  UNL1       -0.2558
     24 C          66.4089   94.3904   12.4253 C.3     1  UNL1        0.1200
     25 C          66.2476   92.9460   14.5788 C.2     1  UNL1        0.2301
     26 O          67.1529   93.9069   15.2911 O.2     1  UNL1       -0.2745
     27 C          65.7143   91.7434   15.2995 C.3     1  UNL1        0.0945
     28 C          64.8090   90.7826   14.5873 C.3     1  UNL1        0.0594
     29 C          64.2757   89.5800   15.3079 C.ar    1  UNL1       -0.0176
     30 C          63.3326   89.7539   16.4613 C.ar    1  UNL1       -0.0016
     31 C          62.7993   88.5513   17.1819 C.ar    1  UNL1        0.0293
     32 C          63.2091   87.1748   16.7492 C.ar    1  UNL1        0.1401
     33 F          62.6758   85.9722   17.4699 F       1  UNL1       -0.2042
     34 C          64.1522   87.0009   15.5959 C.ar    1  UNL1        0.0293
     35 C          64.6855   88.2035   14.8753 C.ar    1  UNL1       -0.0016
@<TRIPOS>BOND
     1     5     6    1
     2     6     7   ar
     3     7     8   ar
     4     8     9    1
     5     8    10   ar
     6    10    13    1
     7    13    14   ar
     8    14    15   ar
     9    15    16   ar
    10    16    17   ar
    11    17    18    1
    12    17    19   ar
    13    19    20    2
    14    10    11   ar
    15    11    12   ar
    16    12     1    1
    17     1     2   am
    18     2     3    2
    19     2    21    1
    20    21    22    2
    21    22    23    1
    22    23    24    1
    23    23    25   am
    24    25    26    2
    25    25    27    1
    26    27    28    1
    27    28    29    1
    28    29    30   ar
    29    30    31   ar
    30    31    32   ar
    31    32    33    1
    32    32    34   ar
    33    34    35   ar
    34    12     6   ar
    35    28    21    1
    36    35    29   ar
    37    19    13   ar
    38     1     4    1
@<TRIPOS>MOLECULE
*****
 35 38 0 0 0
SMALL
GASTEIGER

@<TRIPOS>ATOM
      1 N          64.7251   88.1642   14.6342 N.am    1  UNL1       -0.2809
      2 C          64.0018   89.4756   14.5523 C.2     1  UNL1        0.2471
      3 O          62.5153   89.5258   14.7470 O.2     1  UNL1       -0.2701
      4 H          65.7007   88.1313   14.5065 H       1  UNL1        0.1552
      5 C          63.2994   87.8165   17.2509 C.3     1  UNL1        0.0324
      6 C          63.2491   86.7289   16.2191 C.ar    1  UNL1       -0.0061
      7 C          62.4860   85.4675   16.4956 C.ar    1  UNL1        0.0266
      8 C          62.4357   84.3799   15.4638 C.ar    1  UNL1        0.1400
      9 F          61.6725   83.1185   15.7404 F       1  UNL1       -0.2042
     10 C          63.1485   84.5537   14.1555 C.ar    1  UNL1        0.0334
     11 C          63.9116   85.8151   13.8790 C.ar    1  UNL1        0.0167
     12 C          63.9619   86.9027   14.9108 C.ar    1  UNL1        0.0466
     13 C          63.0982   83.4661   13.1238 C.ar    1  UNL1        0.0614
     14 C          63.2347   83.8054   11.6691 C.ar    1  UNL1        0.0273
     15 C          63.1844   82.7178   10.6373 C.ar    1  UNL1        0.1204
     16 N          62.9976   81.2909   11.0602 N.ar    1  UNL1       -0.1652
     17 N          62.8610   80.9515   12.5149 N.ar    1  UNL1       -0.2145
     18 C          62.6742   79.5245   12.9379 C.3     1  UNL1        0.1571
     19 C          62.9114   82.0392   13.5467 C.ar    1  UNL1        0.2765
     20 O          62.7748   81.6998   15.0014 O.2     1  UNL1       -0.2655
     21 C          64.7649   90.7371   14.2758 C.2     1  UNL1        0.0505
     22 C          65.6553   91.3218   15.3319 C.2     1  UNL1        0.0680
     23 N          66.4184   92.5832   15.0554 N.am    1  UNL1       -0.2558
     24 C          67.3088   93.1679   16.1115 C.3     1  UNL1        0.1200
     25 C          66.2912   93.2598   13.7228 C.2     1  UNL1        0.2301
     26 O          67.0544   94.5213   13.4462 O.2     1  UNL1       -0.2745
     27 C          65.4008   92.6751   12.6667 C.3     1  UNL1        0.0945
     28 C          64.6377   91.4137   12.9432 C.3     1  UNL1        0.0594
     29 C          63.7474   90.8290   11.8870 C.ar    1  UNL1       -0.0176
     30 C          63.1726   89.4553   12.0669 C.ar    1  UNL1       -0.0016
     31 C          62.2823   88.8705   11.0108 C.ar    1  UNL1        0.0293
     32 C          61.9666   89.6596    9.7748 C.ar    1  UNL1        0.1401
     33 F          61.0763   89.0749    8.7187 F       1  UNL1       -0.2042
     34 C          62.5414   91.0333    9.5949 C.ar    1  UNL1        0.0293
     35 C          63.4317   91.6181   10.6510 C.ar    1  UNL1       -0.0016
@<TRIPOS>BOND
     1     5     6    1
     2     6     7   ar
     3     7     8   ar
     4     8     9    1
     5     8    10   ar
     6    10    13    1
     7    13    14   ar
     8    14    15   ar
     9    15    16   ar
    10    16    17   ar
    11    17    18    1
    12    17    19   ar
    13    19    20    2
    14    10    11   ar
    15    11    12   ar
    16    12     1    1
    17     1     2   am
    18     2     3    2
    19     2    21    1
    20    21    22    2
    21    22    23    1
    22    23    24    1
    23    23    25   am
    24    25    26    2
    25    25    27    1
    26    27    28    1
    27    28    29    1
    28    29    30   ar
    29    30    31   ar
    30    31    32   ar
    31    32    33    1
    32    32    34   ar
    33    34    35   ar
    34    12     6   ar
    35    28    21    1
    36    35    29   ar
    37    19    13   ar
    38     1     4    1
