@<TRIPOS>MOLECULE
*****
 29 32 0 0 0
SMALL
GASTEIGER

@<TRIPOS>ATOM
      1 C          62.9508   90.6187   11.5030 C.3     1  UNL1        0.0749
      2 C          64.1461   91.5247   11.4813 C.3     1  UNL1        0.0444
      3 C          64.9038   91.7969   12.7469 C.ar    1  UNL1       -0.0101
      4 C          64.4664   91.1631   14.0341 C.ar    1  UNL1       -0.0091
      5 C          65.2243   91.4353   15.2997 C.ar    1  UNL1       -0.0032
      6 C          66.4195   92.3413   15.2780 C.ar    1  UNL1        0.0010
      7 C          66.8569   92.9752   13.9908 C.ar    1  UNL1        0.0142
      8 C          66.0991   92.7030   12.7253 C.ar    1  UNL1        0.0436
      9 C          63.2712   90.2570   14.0557 C.3     1  UNL1        0.0954
     10 N          62.5134   89.9848   12.7902 N.3     1  UNL1       -0.2934
     11 H          61.5516   90.2826   12.9531 H       1  UNL1        0.1236
     12 N          66.5366   93.3368   11.4381 N.pl3   1  UNL1       -0.3049
     13 C          66.1128   94.7379   11.1100 C.3     1  UNL1        0.1079
     14 C          66.5503   95.3718    9.8228 C.3     1  UNL1        0.0903
     15 N          67.4114   94.6046    8.8637 N.3     1  UNL1       -0.2946
     16 C          67.8351   93.2036    9.1917 C.3     1  UNL1        0.0903
     17 C          67.3977   92.5697   10.4789 C.3     1  UNL1        0.1079
     18 H          68.2651   95.1478    8.7350 H       1  UNL1        0.1233
     19 C          62.1930   90.3465   10.2374 C.3     1  UNL1        0.0886
     20 N          60.8272   89.7296   10.2991 N.3     1  UNL1       -0.2653
     21 C          59.7383   90.3953   11.0874 C.3     1  UNL1        0.0900
     22 C          60.5500   88.4469    9.5724 C.3     1  UNL1        0.1187
     23 C          63.6230   83.4854   10.9656 C.3     1  UNL1        0.0327
     24 C          62.8547   84.7258   10.6173 C.ar    1  UNL1       -0.0027
     25 C          62.8419   85.2279    9.2039 C.ar    1  UNL1       -0.0015
     26 C          62.0737   86.4683    8.8557 C.ar    1  UNL1        0.0158
     27 C          61.3183   87.2065    9.9208 C.ar    1  UNL1        0.0752
     28 N          61.3311   86.7043   11.3341 N.ar    1  UNL1       -0.2471
     29 C          62.0993   85.4640   11.6824 C.ar    1  UNL1        0.0942
@<TRIPOS>BOND
     1    23    24    1
     2    24    25   ar
     3    25    26   ar
     4    26    27   ar
     5    27    22    1
     6    22    20    1
     7    20    21    1
     8    20    19    1
     9     1    19    1
    10     1     2    1
    11     2     3    1
    12     3     4   ar
    13     4     5   ar
    14     5     6   ar
    15     6     7   ar
    16     7     8   ar
    17     8    12    1
    18    12    13    1
    19    13    14    1
    20    14    15    1
    21    15    16    1
    22    16    17    1
    23     4     9    1
    24     9    10    1
    25    27    28   ar
    26    28    29   ar
    27    29    24   ar
    28    10     1    1
    29     8     3   ar
    30    17    12    1
    31    15    18    1
    32    10    11    1
@<TRIPOS>MOLECULE
*****
 29 32 0 0 0
SMALL
GASTEIGER

@<TRIPOS>ATOM
      1 C          61.6894   89.3637   10.9414 C.3     1  UNL1        0.0749
      2 C          62.4599   89.2234   12.2207 C.3     1  UNL1        0.0444
      3 C          63.5772   90.1748   12.5314 C.ar    1  UNL1       -0.0101
      4 C          63.9239   91.2664   11.5628 C.ar    1  UNL1       -0.0091
      5 C          65.0413   92.2178   11.8735 C.ar    1  UNL1       -0.0032
      6 C          65.8118   92.0775   13.1528 C.ar    1  UNL1        0.0010
      7 C          65.4650   90.9859   14.1214 C.ar    1  UNL1        0.0142
      8 C          64.3478   90.0346   13.8107 C.ar    1  UNL1        0.0436
      9 C          63.1534   91.4066   10.2835 C.3     1  UNL1        0.0954
     10 N          62.0362   90.4553    9.9728 N.3     1  UNL1       -0.2934
     11 H          62.2725   90.0017    9.0903 H       1  UNL1        0.1236
     12 N          64.0010   88.9430   14.7793 N.pl3   1  UNL1       -0.3049
     13 C          63.2958   89.2739   16.0612 C.3     1  UNL1        0.1079
     14 C          62.9490   88.1823   17.0298 C.3     1  UNL1        0.0903
     15 N          63.3075   86.7598   16.7165 N.3     1  UNL1       -0.2946
     16 C          64.0126   86.4290   15.4346 C.3     1  UNL1        0.0903
     17 C          64.3594   87.5206   14.4660 C.3     1  UNL1        0.1079
     18 H          62.4363   86.2293   16.7187 H       1  UNL1        0.1233
     19 C          60.5721   88.4123   10.6306 C.3     1  UNL1        0.0886
     20 N          60.7097   87.4378    9.4987 N.3     1  UNL1       -0.2653
     21 C          59.5121   87.0750    8.6714 C.3     1  UNL1        0.0900
     22 C          62.0450   86.8261    9.1938 C.3     1  UNL1        0.1187
     23 C          63.9841   82.1197   12.3703 C.3     1  UNL1        0.0327
     24 C          63.4993   83.2963   11.5762 C.ar    1  UNL1       -0.0027
     25 C          63.8222   83.3993   10.1150 C.ar    1  UNL1       -0.0015
     26 C          63.3374   84.5758    9.3209 C.ar    1  UNL1        0.0158
     27 C          62.5298   85.6494    9.9880 C.ar    1  UNL1        0.0752
     28 N          62.2069   85.5465   11.4492 N.ar    1  UNL1       -0.2471
     29 C          62.6916   84.3699   12.2433 C.ar    1  UNL1        0.0942
@<TRIPOS>BOND
     1    23    24    1
     2    24    25   ar
     3    25    26   ar
     4    26    27   ar
     5    27    22    1
     6    22    20    1
     7    20    21    1
     8    20    19    1
     9     1    19    1
    10     1     2    1
    11     2     3    1
    12     3     4   ar
    13     4     5   ar
    14     5     6   ar
    15     6     7   ar
    16     7     8   ar
    17     8    12    1
    18    12    13    1
    19    13    14    1
    20    14    15    1
    21    15    16    1
    22    16    17    1
    23     4     9    1
    24     9    10    1
    25    27    28   ar
    26    28    29   ar
    27    29    24   ar
    28    10     1    1
    29     8     3   ar
    30    17    12    1
    31    15    18    1
    32    10    11    1
@<TRIPOS>MOLECULE
*****
 29 32 0 0 0
SMALL
GASTEIGER

@<TRIPOS>ATOM
      1 C          62.5989   90.4435   10.7537 C.3     1  UNL1        0.0749
      2 C          63.1576   90.1233   12.1084 C.3     1  UNL1        0.0444
      3 C          64.2995   90.9260   12.6576 C.ar    1  UNL1       -0.0101
      4 C          64.8827   92.0490   11.8521 C.ar    1  UNL1       -0.0091
      5 C          66.0246   92.8517   12.4014 C.ar    1  UNL1       -0.0032
      6 C          66.5834   92.5315   13.7560 C.ar    1  UNL1        0.0010
      7 C          66.0002   91.4085   14.5615 C.ar    1  UNL1        0.0142
      8 C          64.8583   90.6057   14.0123 C.ar    1  UNL1        0.0436
      9 C          64.3239   92.3692   10.4974 C.3     1  UNL1        0.0954
     10 N          63.1820   91.5665    9.9482 N.3     1  UNL1       -0.2934
     11 H          63.5026   91.1622    9.0684 H       1  UNL1        0.1236
     12 N          64.2752   89.4828   14.8178 N.pl3   1  UNL1       -0.3049
     13 C          64.5330   88.0602   14.4178 C.3     1  UNL1        0.1079
     14 C          63.9498   86.9372   15.2233 C.3     1  UNL1        0.0903
     15 N          63.1088   87.2368   16.4288 N.3     1  UNL1       -0.2946
     16 C          62.8511   88.6593   16.8288 C.3     1  UNL1        0.0903
     17 C          63.4342   89.7823   16.0233 C.3     1  UNL1        0.1079
     18 H          63.5616   86.7850   17.2234 H       1  UNL1        0.1233
     19 C          61.4569   89.6408   10.2045 C.3     1  UNL1        0.0886
     20 N          60.6641   88.7467   11.1112 N.3     1  UNL1       -0.2653
     21 C          59.6368   89.3342   12.0329 C.3     1  UNL1        0.0900
     22 C          60.8986   87.2653   11.0962 C.3     1  UNL1        0.1187
     23 C          61.9371   84.4447    5.9032 C.3     1  UNL1        0.0327
     24 C          61.6775   85.1499    7.2015 C.ar    1  UNL1       -0.0027
     25 C          62.7634   85.2487    8.2315 C.ar    1  UNL1       -0.0015
     26 C          62.5038   85.9538    9.5297 C.ar    1  UNL1        0.0158
     27 C          61.1582   86.5601    9.7979 C.ar    1  UNL1        0.0752
     28 N          60.0723   86.4613    8.7679 N.ar    1  UNL1       -0.2471
     29 C          60.3320   85.7562    7.4697 C.ar    1  UNL1        0.0942
@<TRIPOS>BOND
     1    23    24    1
     2    24    25   ar
     3    25    26   ar
     4    26    27   ar
     5    27    22    1
     6    22    20    1
     7    20    21    1
     8    20    19    1
     9     1    19    1
    10     1     2    1
    11     2     3    1
    12     3     4   ar
    13     4     5   ar
    14     5     6   ar
    15     6     7   ar
    16     7     8   ar
    17     8    12    1
    18    12    13    1
    19    13    14    1
    20    14    15    1
    21    15    16    1
    22    16    17    1
    23     4     9    1
    24     9    10    1
    25    27    28   ar
    26    28    29   ar
    27    29    24   ar
    28    10     1    1
    29     8     3   ar
    30    17    12    1
    31    15    18    1
    32    10    11    1
@<TRIPOS>MOLECULE
*****
 29 32 0 0 0
SMALL
GASTEIGER

@<TRIPOS>ATOM
      1 C          61.0297   87.0069   10.4750 C.3     1  UNL1        0.0749
      2 C          61.7908   86.2840   11.5464 C.3     1  UNL1        0.0444
      3 C          62.7201   85.1647   11.1810 C.ar    1  UNL1       -0.0101
      4 C          62.8882   84.7683    9.7441 C.ar    1  UNL1       -0.0091
      5 C          63.8176   83.6490    9.3787 C.ar    1  UNL1       -0.0032
      6 C          64.5787   82.9261   10.4501 C.ar    1  UNL1        0.0010
      7 C          64.4106   83.3224   11.8870 C.ar    1  UNL1        0.0142
      8 C          63.4813   84.4417   12.2524 C.ar    1  UNL1        0.0436
      9 C          62.1271   85.4912    8.6727 C.3     1  UNL1        0.0954
     10 N          61.1978   86.6105    9.0381 N.3     1  UNL1       -0.2934
     11 H          60.2735   86.3499    8.6945 H       1  UNL1        0.1236
     12 N          63.3132   84.8381   13.6893 N.pl3   1  UNL1       -0.3049
     13 C          62.3186   84.1211   14.5536 C.3     1  UNL1        0.1079
     14 C          62.1505   84.5175   15.9905 C.3     1  UNL1        0.0903
     15 N          62.9769   85.6308   16.5631 N.3     1  UNL1       -0.2946
     16 C          63.9714   86.3476   15.6988 C.3     1  UNL1        0.0903
     17 C          64.1395   85.9513   14.2619 C.3     1  UNL1        0.1079
     18 H          63.4976   85.2377   17.3472 H       1  UNL1        0.1233
     19 C          60.1003   88.1262   10.8404 C.3     1  UNL1        0.0886
     20 N          60.6023   89.5394   10.8671 N.3     1  UNL1       -0.2653
     21 C          59.6828   90.6546   11.2684 C.3     1  UNL1        0.0900
     22 C          62.0239   89.8375   10.4925 C.3     1  UNL1        0.1187
     23 C          65.9830   91.3774   14.7298 C.3     1  UNL1        0.0327
     24 C          64.9932   90.9924   13.6704 C.ar    1  UNL1       -0.0027
     25 C          64.1945   89.7308   13.8132 C.ar    1  UNL1       -0.0015
     26 C          63.2047   89.3459   12.7539 C.ar    1  UNL1        0.0158
     27 C          63.0137   90.2225   11.5518 C.ar    1  UNL1        0.0752
     28 N          63.8124   91.4841   11.4090 N.ar    1  UNL1       -0.2471
     29 C          64.8021   91.8690   12.4684 C.ar    1  UNL1        0.0942
@<TRIPOS>BOND
     1    23    24    1
     2    24    25   ar
     3    25    26   ar
     4    26    27   ar
     5    27    22    1
     6    22    20    1
     7    20    21    1
     8    20    19    1
     9     1    19    1
    10     1     2    1
    11     2     3    1
    12     3     4   ar
    13     4     5   ar
    14     5     6   ar
    15     6     7   ar
    16     7     8   ar
    17     8    12    1
    18    12    13    1
    19    13    14    1
    20    14    15    1
    21    15    16    1
    22    16    17    1
    23     4     9    1
    24     9    10    1
    25    27    28   ar
    26    28    29   ar
    27    29    24   ar
    28    10     1    1
    29     8     3   ar
    30    17    12    1
    31    15    18    1
    32    10    11    1
@<TRIPOS>MOLECULE
*****
 29 32 0 0 0
SMALL
GASTEIGER

@<TRIPOS>ATOM
      1 C          63.8244   89.9143   15.1410 C.3     1  UNL1        0.0749
      2 C          63.2285   89.8319   13.7670 C.3     1  UNL1        0.0444
      3 C          63.7344   90.7275   12.6752 C.ar    1  UNL1       -0.0101
      4 C          64.8361   91.7055   12.9575 C.ar    1  UNL1       -0.0091
      5 C          65.3420   92.6011   11.8657 C.ar    1  UNL1       -0.0032
      6 C          64.7461   92.5187   10.4916 C.ar    1  UNL1        0.0010
      7 C          63.6444   91.5408   10.2093 C.ar    1  UNL1        0.0142
      8 C          63.1385   90.6452   11.3011 C.ar    1  UNL1        0.0436
      9 C          65.4320   91.7879   14.3316 C.3     1  UNL1        0.0954
     10 N          64.9262   90.8923   15.4233 N.3     1  UNL1       -0.2934
     11 H          64.5957   91.4998   16.1731 H       1  UNL1        0.1236
     12 N          62.0368   89.6672   11.0187 N.pl3   1  UNL1       -0.3049
     13 C          62.3304   88.4033   10.2662 C.3     1  UNL1        0.1079
     14 C          61.2287   87.4253    9.9838 C.3     1  UNL1        0.0903
     15 N          59.8333   87.7112   10.4541 N.3     1  UNL1       -0.2946
     16 C          59.5396   88.9751   11.2066 C.3     1  UNL1        0.0903
     17 C          60.6414   89.9531   11.4889 C.3     1  UNL1        0.1079
     18 H          59.5628   86.9375   11.0612 H       1  UNL1        0.1233
     19 C          63.3185   89.0187   16.2328 C.3     1  UNL1        0.0886
     20 N          63.5624   87.5403   16.1635 N.3     1  UNL1       -0.2653
     21 C          62.9072   86.6248   17.1549 C.3     1  UNL1        0.0900
     22 C          64.4613   86.9773   15.1028 C.3     1  UNL1        0.1187
     23 C          62.6870   82.2458   11.8679 C.3     1  UNL1        0.0327
     24 C          63.1306   83.4287   12.6767 C.ar    1  UNL1       -0.0027
     25 C          64.0192   83.2314   13.8689 C.ar    1  UNL1       -0.0015
     26 C          64.4627   84.4143   14.6776 C.ar    1  UNL1        0.0158
     27 C          64.0177   85.7944   14.2941 C.ar    1  UNL1        0.0752
     28 N          63.1292   85.9917   13.1018 N.ar    1  UNL1       -0.2471
     29 C          62.6856   84.8089   12.2931 C.ar    1  UNL1        0.0942
@<TRIPOS>BOND
     1    23    24    1
     2    24    25   ar
     3    25    26   ar
     4    26    27   ar
     5    27    22    1
     6    22    20    1
     7    20    21    1
     8    20    19    1
     9     1    19    1
    10     1     2    1
    11     2     3    1
    12     3     4   ar
    13     4     5   ar
    14     5     6   ar
    15     6     7   ar
    16     7     8   ar
    17     8    12    1
    18    12    13    1
    19    13    14    1
    20    14    15    1
    21    15    16    1
    22    16    17    1
    23     4     9    1
    24     9    10    1
    25    27    28   ar
    26    28    29   ar
    27    29    24   ar
    28    10     1    1
    29     8     3   ar
    30    17    12    1
    31    15    18    1
    32    10    11    1
@<TRIPOS>MOLECULE
*****
 29 32 0 0 0
SMALL
GASTEIGER

@<TRIPOS>ATOM
      1 C          63.7306   86.6591   13.6682 C.3     1  UNL1        0.0749
      2 C          63.8940   88.1472   13.5750 C.3     1  UNL1        0.0444
      3 C          63.3197   88.8930   12.4071 C.ar    1  UNL1       -0.0101
      4 C          62.5821   88.1507   11.3325 C.ar    1  UNL1       -0.0091
      5 C          62.0079   88.8966   10.1646 C.ar    1  UNL1       -0.0032
      6 C          62.1712   90.3847   10.0714 C.ar    1  UNL1        0.0010
      7 C          62.9089   91.1270   11.1460 C.ar    1  UNL1        0.0142
      8 C          63.4831   90.3812   12.3139 C.ar    1  UNL1        0.0436
      9 C          62.4187   86.6626   11.4257 C.3     1  UNL1        0.0954
     10 N          62.9930   85.9168   12.5936 N.3     1  UNL1       -0.2934
     11 H          63.6420   85.2281   12.2129 H       1  UNL1        0.1236
     12 N          64.2207   91.1236   13.3885 N.pl3   1  UNL1       -0.3049
     13 C          63.8265   90.9506   14.8255 C.3     1  UNL1        0.1079
     14 C          64.5641   91.6929   15.9001 C.3     1  UNL1        0.0903
     15 N          65.6960   92.6082   15.5378 N.3     1  UNL1       -0.2946
     16 C          66.0902   92.7811   14.1009 C.3     1  UNL1        0.0903
     17 C          65.3525   92.0388   13.0263 C.3     1  UNL1        0.1079
     18 H          66.5209   92.2656   16.0302 H       1  UNL1        0.1233
     19 C          64.3049   85.9132   14.8361 C.3     1  UNL1        0.0886
     20 N          63.5933   84.7105   15.3812 N.3     1  UNL1       -0.2653
     21 C          62.3219   84.8798   16.1590 C.3     1  UNL1        0.0900
     22 C          64.1531   83.3385   15.1485 C.3     1  UNL1        0.1187
     23 C          62.8590   80.3893   10.0860 C.3     1  UNL1        0.0327
     24 C          63.1825   81.1266   11.3517 C.ar    1  UNL1       -0.0027
     25 C          62.6984   80.6010   12.6705 C.ar    1  UNL1       -0.0015
     26 C          63.0220   81.3383   13.9361 C.ar    1  UNL1        0.0158
     27 C          63.8296   82.6012   13.8828 C.ar    1  UNL1        0.0752
     28 N          64.3137   83.1268   12.5640 N.ar    1  UNL1       -0.2471
     29 C          63.9901   82.3895   11.2984 C.ar    1  UNL1        0.0942
@<TRIPOS>BOND
     1    23    24    1
     2    24    25   ar
     3    25    26   ar
     4    26    27   ar
     5    27    22    1
     6    22    20    1
     7    20    21    1
     8    20    19    1
     9     1    19    1
    10     1     2    1
    11     2     3    1
    12     3     4   ar
    13     4     5   ar
    14     5     6   ar
    15     6     7   ar
    16     7     8   ar
    17     8    12    1
    18    12    13    1
    19    13    14    1
    20    14    15    1
    21    15    16    1
    22    16    17    1
    23     4     9    1
    24     9    10    1
    25    27    28   ar
    26    28    29   ar
    27    29    24   ar
    28    10     1    1
    29     8     3   ar
    30    17    12    1
    31    15    18    1
    32    10    11    1
@<TRIPOS>MOLECULE
*****
 29 32 0 0 0
SMALL
GASTEIGER

@<TRIPOS>ATOM
      1 C          62.6170   84.0285   13.2280 C.3     1  UNL1        0.0749
      2 C          62.2865   85.2503   12.4230 C.3     1  UNL1        0.0444
      3 C          62.5259   85.2601   10.9423 C.ar    1  UNL1       -0.0101
      4 C          63.0957   84.0482   10.2665 C.ar    1  UNL1       -0.0091
      5 C          63.3350   84.0581    8.7857 C.ar    1  UNL1       -0.0032
      6 C          63.0046   85.2799    7.9807 C.ar    1  UNL1        0.0010
      7 C          62.4348   86.4918    8.6565 C.ar    1  UNL1        0.0142
      8 C          62.1954   86.4819   10.1372 C.ar    1  UNL1        0.0436
      9 C          63.4261   82.8264   11.0715 C.3     1  UNL1        0.0954
     10 N          63.1868   82.8166   12.5522 N.3     1  UNL1       -0.2934
     11 H          64.0863   82.6284   12.9947 H       1  UNL1        0.1236
     12 N          61.6256   87.6938   10.8129 N.pl3   1  UNL1       -0.3049
     13 C          60.1395   87.8504   10.9438 C.3     1  UNL1        0.1079
     14 C          59.5697   89.0624   11.6195 C.3     1  UNL1        0.0903
     15 N          60.4860   90.1176   12.1644 N.3     1  UNL1       -0.2946
     16 C          61.9720   89.9610   12.0335 C.3     1  UNL1        0.0903
     17 C          62.5418   88.7491   11.3578 C.3     1  UNL1        0.1079
     18 H          60.2849   90.1961   13.1613 H       1  UNL1        0.1233
     19 C          62.3776   84.0186   14.7088 C.3     1  UNL1        0.0886
     20 N          63.4793   84.4081   15.6492 N.3     1  UNL1       -0.2653
     21 C          64.7782   83.6579   15.6346 C.3     1  UNL1        0.0900
     22 C          63.2823   85.5478   16.6043 C.3     1  UNL1        0.1187
     23 C          64.1744   91.1896   14.7673 C.3     1  UNL1        0.0327
     24 C          63.9513   89.7791   15.2266 C.ar    1  UNL1       -0.0027
     25 C          64.5056   88.6348   14.4308 C.ar    1  UNL1       -0.0015
     26 C          64.2826   87.2244   14.8901 C.ar    1  UNL1        0.0158
     27 C          63.5053   86.9583   16.1451 C.ar    1  UNL1        0.0752
     28 N          62.9510   88.1026   16.9408 N.ar    1  UNL1       -0.2471
     29 C          63.1740   89.5130   16.4815 C.ar    1  UNL1        0.0942
@<TRIPOS>BOND
     1    23    24    1
     2    24    25   ar
     3    25    26   ar
     4    26    27   ar
     5    27    22    1
     6    22    20    1
     7    20    21    1
     8    20    19    1
     9     1    19    1
    10     1     2    1
    11     2     3    1
    12     3     4   ar
    13     4     5   ar
    14     5     6   ar
    15     6     7   ar
    16     7     8   ar
    17     8    12    1
    18    12    13    1
    19    13    14    1
    20    14    15    1
    21    15    16    1
    22    16    17    1
    23     4     9    1
    24     9    10    1
    25    27    28   ar
    26    28    29   ar
    27    29    24   ar
    28    10     1    1
    29     8     3   ar
    30    17    12    1
    31    15    18    1
    32    10    11    1
@<TRIPOS>MOLECULE
*****
 29 32 0 0 0
SMALL
GASTEIGER

@<TRIPOS>ATOM
      1 C          63.4281   89.2161   12.9540 C.3     1  UNL1        0.0749
      2 C          63.1326   87.9406   12.2221 C.3     1  UNL1        0.0444
      3 C          62.1901   87.9466   11.0553 C.ar    1  UNL1       -0.0101
      4 C          61.5430   89.2281   10.6204 C.ar    1  UNL1       -0.0091
      5 C          60.6004   89.2340    9.4535 C.ar    1  UNL1       -0.0032
      6 C          60.3049   87.9585    8.7216 C.ar    1  UNL1        0.0010
      7 C          60.9520   86.6770    9.1565 C.ar    1  UNL1        0.0142
      8 C          61.8945   86.6710   10.3233 C.ar    1  UNL1        0.0436
      9 C          61.8385   90.5035   11.3523 C.3     1  UNL1        0.0954
     10 N          62.7811   90.4975   12.5191 N.3     1  UNL1       -0.2934
     11 H          62.2591   90.8508   13.3211 H       1  UNL1        0.1236
     12 N          62.5416   85.3896   10.7582 N.pl3   1  UNL1       -0.3049
     13 C          62.3950   84.9184   12.1747 C.3     1  UNL1        0.1079
     14 C          63.0421   83.6369   12.6096 C.3     1  UNL1        0.0903
     15 N          63.8357   82.8266   11.6279 N.3     1  UNL1       -0.2946
     16 C          63.9822   83.2977   10.2114 C.3     1  UNL1        0.0903
     17 C          63.3351   84.5792    9.7765 C.3     1  UNL1        0.1079
     18 H          63.4014   81.9045   11.5881 H       1  UNL1        0.1233
     19 C          64.3707   89.2101   14.1209 C.3     1  UNL1        0.0886
     20 N          64.7777   90.5032   14.7628 N.3     1  UNL1       -0.2653
     21 C          63.9304   91.1022   15.8461 C.3     1  UNL1        0.0900
     22 C          66.0320   91.1975   14.3216 C.3     1  UNL1        0.1187
     23 C          65.7685   95.5075   10.1556 C.3     1  UNL1        0.0327
     24 C          65.8344   94.4300   11.1972 C.ar    1  UNL1       -0.0027
     25 C          66.4220   94.7250   12.5453 C.ar    1  UNL1       -0.0015
     26 C          66.4879   93.6475   13.5868 C.ar    1  UNL1        0.0158
     27 C          65.9661   92.2750   13.2800 C.ar    1  UNL1        0.0752
     28 N          65.3785   91.9800   11.9318 N.ar    1  UNL1       -0.2471
     29 C          65.3126   93.0575   10.8904 C.ar    1  UNL1        0.0942
@<TRIPOS>BOND
     1    23    24    1
     2    24    25   ar
     3    25    26   ar
     4    26    27   ar
     5    27    22    1
     6    22    20    1
     7    20    21    1
     8    20    19    1
     9     1    19    1
    10     1     2    1
    11     2     3    1
    12     3     4   ar
    13     4     5   ar
    14     5     6   ar
    15     6     7   ar
    16     7     8   ar
    17     8    12    1
    18    12    13    1
    19    13    14    1
    20    14    15    1
    21    15    16    1
    22    16    17    1
    23     4     9    1
    24     9    10    1
    25    27    28   ar
    26    28    29   ar
    27    29    24   ar
    28    10     1    1
    29     8     3   ar
    30    17    12    1
    31    15    18    1
    32    10    11    1
@<TRIPOS>MOLECULE
*****
 29 32 0 0 0
SMALL
GASTEIGER

@<TRIPOS>ATOM
      1 C          64.1265   90.5944   13.5826 C.3     1  UNL1        0.0749
      2 C          63.9198   89.1166   13.4304 C.3     1  UNL1        0.0444
      3 C          63.1704   88.5822   12.2460 C.ar    1  UNL1       -0.0101
      4 C          62.6277   89.5257   11.2139 C.ar    1  UNL1       -0.0091
      5 C          61.8782   88.9912   10.0294 C.ar    1  UNL1       -0.0032
      6 C          61.6715   87.5134    9.8772 C.ar    1  UNL1        0.0010
      7 C          62.2143   86.5699   10.9093 C.ar    1  UNL1        0.0142
      8 C          62.9637   87.1043   12.0937 C.ar    1  UNL1        0.0436
      9 C          62.8343   91.0035   11.3661 C.3     1  UNL1        0.0954
     10 N          63.5837   91.5379   12.5505 N.3     1  UNL1       -0.2934
     11 H          62.9515   92.1739   13.0365 H       1  UNL1        0.1236
     12 N          63.5065   86.1608   13.1258 N.pl3   1  UNL1       -0.3049
     13 C          63.4193   84.6793   12.9074 C.3     1  UNL1        0.1079
     14 C          63.9621   83.7358   13.9395 C.3     1  UNL1        0.0903
     15 N          64.5920   84.2738   15.1900 N.3     1  UNL1       -0.2946
     16 C          64.6791   85.7553   15.4084 C.3     1  UNL1        0.0903
     17 C          64.1363   86.6987   14.3763 C.3     1  UNL1        0.1079
     18 H          65.5466   83.9157   15.2165 H       1  UNL1        0.1233
     19 C          64.8759   91.1288   14.7670 C.3     1  UNL1        0.0886
     20 N          66.1544   91.8870   14.5658 N.3     1  UNL1       -0.2653
     21 C          67.4702   91.2314   14.8645 C.3     1  UNL1        0.0900
     22 C          66.1174   93.3007   14.0659 C.3     1  UNL1        0.1187
     23 C          67.4322   94.4911    8.3340 C.3     1  UNL1        0.0327
     24 C          67.1035   94.1935    9.7670 C.ar    1  UNL1       -0.0027
     25 C          67.1707   92.7836   10.2747 C.ar    1  UNL1       -0.0015
     26 C          66.8420   92.4861   11.7076 C.ar    1  UNL1        0.0158
     27 C          66.4461   93.5983   12.6329 C.ar    1  UNL1        0.0752
     28 N          66.3788   95.0082   12.1252 N.ar    1  UNL1       -0.2471
     29 C          66.7075   95.3057   10.6922 C.ar    1  UNL1        0.0942
@<TRIPOS>BOND
     1    23    24    1
     2    24    25   ar
     3    25    26   ar
     4    26    27   ar
     5    27    22    1
     6    22    20    1
     7    20    21    1
     8    20    19    1
     9     1    19    1
    10     1     2    1
    11     2     3    1
    12     3     4   ar
    13     4     5   ar
    14     5     6   ar
    15     6     7   ar
    16     7     8   ar
    17     8    12    1
    18    12    13    1
    19    13    14    1
    20    14    15    1
    21    15    16    1
    22    16    17    1
    23     4     9    1
    24     9    10    1
    25    27    28   ar
    26    28    29   ar
    27    29    24   ar
    28    10     1    1
    29     8     3   ar
    30    17    12    1
    31    15    18    1
    32    10    11    1
