@<TRIPOS>MOLECULE
*****
 43 46 0 0 0
SMALL
GASTEIGER

@<TRIPOS>ATOM
      1 C          62.1235   87.2154   10.8835 C.ar    1  UNL1        0.0703
      2 C          62.2791   88.6664   11.2305 C.ar    1  UNL1        0.0465
      3 C          61.6823   89.7180   10.3429 C.3     1  UNL1        0.0503
      4 N          63.0314   89.0657   12.4653 N.ar    1  UNL1       -0.2805
      5 C          63.6282   88.0140   13.3529 C.ar    1  UNL1        0.3338
      6 O          64.1385   88.1585   14.1819 O.2     1  UNL1       -0.2462
      7 N          63.4726   86.5630   13.0058 N.ar    1  UNL1       -0.2470
      8 C          62.7203   86.1638   11.7711 C.ar    1  UNL1        0.2654
      9 O          62.5647   84.7127   11.4239 O.2     1  UNL1       -0.2668
     10 C          61.3101   85.6401    7.3328 C.ar    1  UNL1        0.1660
     11 C          59.8665   86.0174    7.1793 C.ar    1  UNL1        0.0392
     12 C          59.1752   86.7940    8.2605 C.ar    1  UNL1        0.0033
     13 C          59.9275   87.1934    9.4952 C.ar    1  UNL1        0.0026
     14 C          61.3711   86.8161    9.6487 C.ar    1  UNL1        0.0362
     15 C          62.0624   86.0394    8.5675 C.ar    1  UNL1        0.1739
     16 F          63.5061   85.6621    8.7211 F       1  UNL1       -0.2010
     17 C          61.2450   83.8317    5.4686 C.3     1  UNL1        0.2526
     18 O          62.0014   84.8635    6.2517 O.3     1  UNL1       -0.4692
     19 C          63.1870   90.5167   12.8124 C.3     1  UNL1        0.1399
     20 C          64.4491   91.2428   12.4522 C.ar    1  UNL1        0.0386
     21 C          64.5913   91.8734   11.0986 C.ar    1  UNL1        0.1388
     22 F          63.4715   91.7778   10.1052 F       1  UNL1       -0.2044
     23 C          65.8534   92.5995   10.7383 C.ar    1  UNL1        0.0294
     24 C          66.9733   92.6951   11.7317 C.ar    1  UNL1        0.0032
     25 C          66.8311   92.0646   13.0852 C.ar    1  UNL1        0.0113
     26 C          65.5690   91.3384   13.4455 C.ar    1  UNL1        0.0577
     27 CL         65.5864   90.9657   14.3561 Cl      1  UNL1       -0.0824
     28 C          64.0694   85.5114   13.8934 C.3     1  UNL1        0.1337
     29 C          63.1763   84.5734   14.6500 C.3     1  UNL1        0.1000
     30 C          62.9793   83.1685   14.1627 C.ar    1  UNL1       -0.0061
     31 C          61.7450   82.4076   14.5468 C.ar    1  UNL1       -0.0029
     32 C          61.5480   81.0027   14.0596 C.ar    1  UNL1       -0.0003
     33 C          62.5853   80.3587   13.1882 C.ar    1  UNL1       -0.0000
     34 C          63.8196   81.1196   12.8041 C.ar    1  UNL1       -0.0003
     35 C          64.0166   82.5245   13.2913 C.ar    1  UNL1       -0.0029
     36 N          62.4801   85.0403   15.8940 N.3     1  UNL1       -0.2935
     37 H          62.1819   84.2041   16.3961 H       1  UNL1        0.1236
     38 C          63.2082   85.9023   16.8823 C.3     1  UNL1        0.0692
     39 C          62.5265   87.0969   17.4808 C.3     1  UNL1        0.0230
     40 C          63.2162   88.4289   17.4876 C.3     1  UNL1        0.0431
     41 C          62.6725   89.5592   16.6650 C.2     1  UNL1        0.0504
     42 O          63.3406   90.9017   16.7005 O.co2   1  UNL1       -0.5492
     43 O          61.4606   89.3470   15.8068 O.co2   1  UNL1       -0.5492
@<TRIPOS>UNITY_ATOM_ATTR
42 1
charge -1
@<TRIPOS>BOND
     1    17    18    1
     2    18    10    1
     3    10    11   ar
     4    11    12   ar
     5    12    13   ar
     6    13    14   ar
     7    14     1    1
     8     1     2   ar
     9     2     3    1
    10     2     4   ar
    11     4    19    1
    12    19    20    1
    13    20    21   ar
    14    21    22    1
    15    21    23   ar
    16    23    24   ar
    17    24    25   ar
    18    25    26   ar
    19    26    27    1
    20     4     5   ar
    21     5     6    2
    22     5     7   ar
    23     7    28    1
    24    29    28    1
    25    29    36    1
    26    36    38    1
    27    38    39    1
    28    39    40    1
    29    40    41    1
    30    41    42   ar
    31    41    43   ar
    32    29    30    1
    33    30    31   ar
    34    31    32   ar
    35    32    33   ar
    36    33    34   ar
    37    34    35   ar
    38     7     8   ar
    39     8     9    2
    40    14    15   ar
    41    15    16    1
    42    15    10   ar
    43     8     1   ar
    44    26    20   ar
    45    35    30   ar
    46    36    37    1
@<TRIPOS>MOLECULE
*****
 43 46 0 0 0
SMALL
GASTEIGER

@<TRIPOS>ATOM
      1 C          62.5374   86.9339   10.9213 C.ar    1  UNL1        0.0703
      2 C          62.6007   88.3968   11.2468 C.ar    1  UNL1        0.0465
      3 C          62.0955   89.4072   10.2599 C.3     1  UNL1        0.0503
      4 N          63.1692   88.8493   12.5591 N.ar    1  UNL1       -0.2805
      5 C          63.6744   87.8389   13.5459 C.ar    1  UNL1        0.3338
      6 O          64.0649   88.0194   14.4310 O.2     1  UNL1       -0.2462
      7 N          63.6111   86.3760   13.2204 N.ar    1  UNL1       -0.2470
      8 C          63.0426   85.9235   11.9082 C.ar    1  UNL1        0.2654
      9 O          62.9793   84.4606   11.5827 O.2     1  UNL1       -0.2668
     10 C          60.0215   86.4562    7.8895 C.ar    1  UNL1        0.1660
     11 C          60.8320   85.5764    6.9845 C.ar    1  UNL1        0.0392
     12 C          62.2109   85.1491    7.3918 C.ar    1  UNL1        0.0033
     13 C          62.7794   85.6016    8.7040 C.ar    1  UNL1        0.0026
     14 C          61.9689   86.4814    9.6090 C.ar    1  UNL1        0.0362
     15 C          60.5900   86.9087    9.2017 C.ar    1  UNL1        0.1739
     16 F          59.7795   87.7886   10.1068 F       1  UNL1       -0.2010
     17 C          58.3781   88.3139    7.1161 C.3     1  UNL1        0.2526
     18 O          58.6426   86.8836    7.4822 O.3     1  UNL1       -0.4692
     19 C          63.2324   90.3122   12.8845 C.3     1  UNL1        0.1399
     20 C          64.4645   91.1014   12.5542 C.ar    1  UNL1        0.0386
     21 C          65.5923   91.1789   13.5402 C.ar    1  UNL1        0.1388
     22 F          65.4879   90.4672   14.8565 F       1  UNL1       -0.2044
     23 C          66.8244   91.9680   13.2100 C.ar    1  UNL1        0.0294
     24 C          66.9288   92.6797   11.8937 C.ar    1  UNL1        0.0032
     25 C          65.8011   92.6023   10.9077 C.ar    1  UNL1        0.0113
     26 C          64.5689   91.8131   11.2379 C.ar    1  UNL1        0.0577
     27 CL         63.8963   91.8320   10.5198 Cl      1  UNL1       -0.0824
     28 C          64.1163   85.3656   14.2073 C.3     1  UNL1        0.1337
     29 C          63.1514   84.4619   14.9159 C.3     1  UNL1        0.1000
     30 C          62.9276   83.0650   14.4173 C.ar    1  UNL1       -0.0061
     31 C          61.6002   82.3980   14.6252 C.ar    1  UNL1       -0.0029
     32 C          61.3765   81.0011   14.1266 C.ar    1  UNL1       -0.0003
     33 C          62.4800   80.2712   13.4201 C.ar    1  UNL1       -0.0000
     34 C          63.8075   80.9381   13.2121 C.ar    1  UNL1       -0.0003
     35 C          64.0313   82.3350   13.7107 C.ar    1  UNL1       -0.0029
     36 N          62.4102   84.9550   16.1232 N.3     1  UNL1       -0.2935
     37 H          62.0970   84.1295   16.6340 H       1  UNL1        0.1236
     38 C          63.1003   85.8425   17.1162 C.3     1  UNL1        0.0692
     39 C          62.4404   87.1087   17.5759 C.3     1  UNL1        0.0230
     40 C          63.1866   88.4085   17.5141 C.3     1  UNL1        0.0431
     41 C          62.6379   89.5508   16.7115 C.2     1  UNL1        0.0504
     42 O          61.4063   89.3580   15.8773 O.co2   1  UNL1       -0.5492
     43 O          63.3210   90.8860   16.7431 O.co2   1  UNL1       -0.5492
@<TRIPOS>UNITY_ATOM_ATTR
42 1
charge -1
@<TRIPOS>BOND
     1    17    18    1
     2    18    10    1
     3    10    11   ar
     4    11    12   ar
     5    12    13   ar
     6    13    14   ar
     7    14     1    1
     8     1     2   ar
     9     2     3    1
    10     2     4   ar
    11     4    19    1
    12    19    20    1
    13    20    21   ar
    14    21    22    1
    15    21    23   ar
    16    23    24   ar
    17    24    25   ar
    18    25    26   ar
    19    26    27    1
    20     4     5   ar
    21     5     6    2
    22     5     7   ar
    23     7    28    1
    24    29    28    1
    25    29    36    1
    26    36    38    1
    27    38    39    1
    28    39    40    1
    29    40    41    1
    30    41    42   ar
    31    41    43   ar
    32    29    30    1
    33    30    31   ar
    34    31    32   ar
    35    32    33   ar
    36    33    34   ar
    37    34    35   ar
    38     7     8   ar
    39     8     9    2
    40    14    15   ar
    41    15    16    1
    42    15    10   ar
    43     8     1   ar
    44    26    20   ar
    45    35    30   ar
    46    36    37    1
@<TRIPOS>MOLECULE
*****
 43 46 0 0 0
SMALL
GASTEIGER

@<TRIPOS>ATOM
      1 C          62.2523   86.9816   11.1826 C.ar    1  UNL1        0.0703
      2 C          62.8536   85.8162   11.9108 C.ar    1  UNL1        0.0465
      3 C          62.6793   84.4261   11.3749 C.3     1  UNL1        0.0503
      4 N          63.6293   86.0409   13.1749 N.ar    1  UNL1       -0.2805
      5 C          63.8037   87.4310   13.7108 C.ar    1  UNL1        0.3338
      6 O          64.2890   87.6953   14.5251 O.2     1  UNL1       -0.2462
      7 N          63.2023   88.5964   12.9826 N.ar    1  UNL1       -0.2470
      8 C          62.4267   88.3717   11.7186 C.ar    1  UNL1        0.2654
      9 O          61.8254   89.5372   10.9903 O.2     1  UNL1       -0.2668
     10 C          61.3370   85.8126    7.5022 C.ar    1  UNL1        0.1660
     11 C          59.9254   86.3076    7.3904 C.ar    1  UNL1        0.0392
     12 C          59.2895   87.0273    8.5426 C.ar    1  UNL1        0.0033
     13 C          60.0651   87.2520    9.8067 C.ar    1  UNL1        0.0026
     14 C          61.4766   86.7570    9.9185 C.ar    1  UNL1        0.0362
     15 C          62.1126   86.0373    8.7663 C.ar    1  UNL1        0.1739
     16 F          63.5242   85.5423    8.8781 F       1  UNL1       -0.2010
     17 C          61.2608   83.9454    5.6973 C.3     1  UNL1        0.2526
     18 O          61.9729   85.0930    6.3499 O.3     1  UNL1       -0.4692
     19 C          64.2306   84.8754   13.9030 C.3     1  UNL1        0.1399
     20 C          63.5525   83.5380   13.8672 C.ar    1  UNL1        0.0386
     21 C          62.2784   83.3224   14.6291 C.ar    1  UNL1        0.1388
     22 F          61.6826   84.4443   15.4268 F       1  UNL1       -0.2044
     23 C          61.6003   81.9849   14.5933 C.ar    1  UNL1        0.0294
     24 C          62.1962   80.8630   13.7957 C.ar    1  UNL1        0.0032
     25 C          63.4702   81.0786   13.0338 C.ar    1  UNL1        0.0113
     26 C          64.1483   82.4161   13.0696 C.ar    1  UNL1        0.0577
     27 CL         64.9741   82.4429   12.5349 Cl      1  UNL1       -0.0824
     28 C          63.3767   89.9865   13.5185 C.3     1  UNL1        0.1337
     29 C          64.5044   90.8442   13.0260 C.3     1  UNL1        0.1000
     30 C          65.4881   91.4218   14.0000 C.ar    1  UNL1       -0.0061
     31 C          65.0263   91.8731   15.3539 C.ar    1  UNL1       -0.0029
     32 C          66.0100   92.4506   16.3279 C.ar    1  UNL1       -0.0003
     33 C          67.4556   92.5768   15.9480 C.ar    1  UNL1       -0.0000
     34 C          67.9175   92.1255   14.5941 C.ar    1  UNL1       -0.0003
     35 C          66.9338   91.5480   13.6201 C.ar    1  UNL1       -0.0029
     36 N          64.6483   91.1245   11.5594 N.3     1  UNL1       -0.2935
     37 H          63.8985   90.6187   11.0880 H       1  UNL1        0.1236
     38 C          64.6000   92.5371   11.0575 C.3     1  UNL1        0.0692
     39 C          65.8651   93.2316   10.6489 C.3     1  UNL1        0.0230
     40 C          67.0542   92.4282   10.2120 C.3     1  UNL1        0.0431
     41 C          68.0782   93.0385    9.3015 C.2     1  UNL1        0.0504
     42 O          68.7237   92.2060    8.2338 O.co2   1  UNL1       -0.5492
     43 O          68.4567   94.4815    9.4589 O.co2   1  UNL1       -0.5492
@<TRIPOS>UNITY_ATOM_ATTR
42 1
charge -1
@<TRIPOS>BOND
     1    17    18    1
     2    18    10    1
     3    10    11   ar
     4    11    12   ar
     5    12    13   ar
     6    13    14   ar
     7    14     1    1
     8     1     2   ar
     9     2     3    1
    10     2     4   ar
    11     4    19    1
    12    19    20    1
    13    20    21   ar
    14    21    22    1
    15    21    23   ar
    16    23    24   ar
    17    24    25   ar
    18    25    26   ar
    19    26    27    1
    20     4     5   ar
    21     5     6    2
    22     5     7   ar
    23     7    28    1
    24    29    28    1
    25    29    36    1
    26    36    38    1
    27    38    39    1
    28    39    40    1
    29    40    41    1
    30    41    42   ar
    31    41    43   ar
    32    29    30    1
    33    30    31   ar
    34    31    32   ar
    35    32    33   ar
    36    33    34   ar
    37    34    35   ar
    38     7     8   ar
    39     8     9    2
    40    14    15   ar
    41    15    16    1
    42    15    10   ar
    43     8     1   ar
    44    26    20   ar
    45    35    30   ar
    46    36    37    1
@<TRIPOS>MOLECULE
*****
 43 46 0 0 0
SMALL
GASTEIGER

@<TRIPOS>ATOM
      1 C          63.2481   88.0949   13.5965 C.ar    1  UNL1        0.0703
      2 C          63.9405   86.7812   13.8084 C.ar    1  UNL1        0.0465
      3 C          65.0371   86.6668   14.8254 C.3     1  UNL1        0.0503
      4 N          63.5362   85.5819   13.0032 N.ar    1  UNL1       -0.2805
      5 C          62.4396   85.6963   11.9861 C.ar    1  UNL1        0.3338
      6 O          62.0937   84.9814   11.4050 O.2     1  UNL1       -0.2462
      7 N          61.7473   87.0101   11.7743 N.ar    1  UNL1       -0.2470
      8 C          62.1515   88.2093   12.5795 C.ar    1  UNL1        0.2654
      9 O          61.4592   89.5231   12.3676 O.2     1  UNL1       -0.2668
     10 C          64.8130   91.6135   14.5561 C.ar    1  UNL1        0.1660
     11 C          64.4609   91.6928   16.0120 C.ar    1  UNL1        0.0392
     12 C          63.7045   90.5728   16.6627 C.ar    1  UNL1        0.0033
     13 C          63.3002   89.3735   15.8576 C.ar    1  UNL1        0.0026
     14 C          63.6524   89.2942   14.4017 C.ar    1  UNL1        0.0362
     15 C          64.4088   90.4142   13.7510 C.ar    1  UNL1        0.1739
     16 F          64.7609   90.3349   12.2950 F       1  UNL1       -0.2010
     17 C          66.7932   93.2954   14.5661 C.3     1  UNL1        0.2526
     18 O          65.5695   92.7334   13.9053 O.3     1  UNL1       -0.4692
     19 C          64.2285   84.2683   13.2150 C.3     1  UNL1        0.1399
     20 C          63.4304   82.9992   13.2638 C.ar    1  UNL1        0.0386
     21 C          63.5899   81.9709   12.1833 C.ar    1  UNL1        0.1388
     22 F          64.5475   82.2117   11.0542 F       1  UNL1       -0.2044
     23 C          62.7918   80.7018   12.2321 C.ar    1  UNL1        0.0294
     24 C          61.8342   80.4610   13.3613 C.ar    1  UNL1        0.0032
     25 C          61.6747   81.4892   14.4417 C.ar    1  UNL1        0.0113
     26 C          62.4728   82.7583   14.3930 C.ar    1  UNL1        0.0577
     27 CL         62.2879   83.3581   15.1509 Cl      1  UNL1       -0.0824
     28 C          60.6507   87.1245   10.7572 C.3     1  UNL1        0.1337
     29 C          60.9784   87.4829    9.3381 C.3     1  UNL1        0.1000
     30 C          61.3623   86.4097    8.3630 C.ar    1  UNL1       -0.0061
     31 C          60.3415   85.8621    7.4100 C.ar    1  UNL1       -0.0029
     32 C          60.7254   84.7889    6.4349 C.ar    1  UNL1       -0.0003
     33 C          62.1301   84.2632    6.4128 C.ar    1  UNL1       -0.0000
     34 C          63.1509   84.8107    7.3658 C.ar    1  UNL1       -0.0003
     35 C          62.7670   85.8839    8.3409 C.ar    1  UNL1       -0.0029
     36 N          60.9222   88.9146    8.8939 N.3     1  UNL1       -0.2935
     37 H          61.6611   89.0373    8.2015 H       1  UNL1        0.1236
     38 C          59.6648   89.4628    8.2871 C.3     1  UNL1        0.0692
     39 C          59.3788   89.2468    6.8306 C.3     1  UNL1        0.0230
     40 C          59.6948   90.3246    5.8363 C.3     1  UNL1        0.0431
     41 C          58.5974   91.1952    5.2999 C.2     1  UNL1        0.0504
     42 O          58.9342   92.4283    4.5149 O.co2   1  UNL1       -0.5492
     43 O          57.1632   90.8328    5.5484 O.co2   1  UNL1       -0.5492
@<TRIPOS>UNITY_ATOM_ATTR
42 1
charge -1
@<TRIPOS>BOND
     1    17    18    1
     2    18    10    1
     3    10    11   ar
     4    11    12   ar
     5    12    13   ar
     6    13    14   ar
     7    14     1    1
     8     1     2   ar
     9     2     3    1
    10     2     4   ar
    11     4    19    1
    12    19    20    1
    13    20    21   ar
    14    21    22    1
    15    21    23   ar
    16    23    24   ar
    17    24    25   ar
    18    25    26   ar
    19    26    27    1
    20     4     5   ar
    21     5     6    2
    22     5     7   ar
    23     7    28    1
    24    29    28    1
    25    29    36    1
    26    36    38    1
    27    38    39    1
    28    39    40    1
    29    40    41    1
    30    41    42   ar
    31    41    43   ar
    32    29    30    1
    33    30    31   ar
    34    31    32   ar
    35    32    33   ar
    36    33    34   ar
    37    34    35   ar
    38     7     8   ar
    39     8     9    2
    40    14    15   ar
    41    15    16    1
    42    15    10   ar
    43     8     1   ar
    44    26    20   ar
    45    35    30   ar
    46    36    37    1
@<TRIPOS>MOLECULE
*****
 43 46 0 0 0
SMALL
GASTEIGER

@<TRIPOS>ATOM
      1 C          62.6072   87.5335   11.2371 C.ar    1  UNL1        0.0703
      2 C          63.0231   86.5255   12.2670 C.ar    1  UNL1        0.0465
      3 C          62.7942   85.0636   12.0210 C.3     1  UNL1        0.0503
      4 N          63.6680   86.9793   13.5431 N.ar    1  UNL1       -0.2805
      5 C          63.8970   88.4412   13.7891 C.ar    1  UNL1        0.3338
      6 O          64.3083   88.8508   14.5838 O.2     1  UNL1       -0.2462
      7 N          63.4810   89.4492   12.7590 N.ar    1  UNL1       -0.2470
      8 C          62.8361   88.9954   11.4831 C.ar    1  UNL1        0.2654
      9 O          62.4202   90.0034   10.4530 O.2     1  UNL1       -0.2668
     10 C          59.9965   87.2005    8.2666 C.ar    1  UNL1        0.1660
     11 C          60.6725   86.1721    7.4091 C.ar    1  UNL1        0.0392
     12 C          61.9933   85.5974    7.8276 C.ar    1  UNL1        0.0033
     13 C          62.6382   86.0512    9.1035 C.ar    1  UNL1        0.0026
     14 C          61.9623   87.0797    9.9610 C.ar    1  UNL1        0.0362
     15 C          60.6414   87.6543    9.5426 C.ar    1  UNL1        0.1739
     16 F          59.9655   88.6828   10.4001 F       1  UNL1       -0.2010
     17 C          58.6305   88.9596    6.9288 C.3     1  UNL1        0.2526
     18 O          58.6757   87.7752    7.8481 O.3     1  UNL1       -0.4692
     19 C          64.0840   85.9713   14.5730 C.3     1  UNL1        0.1399
     20 C          63.6574   84.5398   14.4364 C.ar    1  UNL1        0.0386
     21 C          64.5385   83.5597   13.7199 C.ar    1  UNL1        0.1388
     22 F          65.8461   84.0113   13.1401 F       1  UNL1       -0.2044
     23 C          64.1120   82.1282   13.5833 C.ar    1  UNL1        0.0294
     24 C          62.8043   81.6766   14.1632 C.ar    1  UNL1        0.0032
     25 C          61.9233   82.6566   14.8796 C.ar    1  UNL1        0.0113
     26 C          62.3498   84.0882   15.0163 C.ar    1  UNL1        0.0577
     27 CL         61.6960   84.6394   15.5033 Cl      1  UNL1       -0.0824
     28 C          63.7099   90.9111   13.0050 C.3     1  UNL1        0.1337
     29 C          65.0459   91.5223   12.7026 C.3     1  UNL1        0.1000
     30 C          65.9762   91.8836   13.8225 C.ar    1  UNL1       -0.0061
     31 C          65.4281   92.1785   15.1872 C.ar    1  UNL1       -0.0029
     32 C          66.3584   92.5398   16.3071 C.ar    1  UNL1       -0.0003
     33 C          67.8367   92.6062   16.0622 C.ar    1  UNL1       -0.0000
     34 C          68.3849   92.3113   14.6974 C.ar    1  UNL1       -0.0003
     35 C          67.4546   91.9500   13.5775 C.ar    1  UNL1       -0.0029
     36 N          65.4517   91.7723   11.2803 N.3     1  UNL1       -0.2935
     37 H          64.9426   91.1002   10.7064 H       1  UNL1        0.1236
     38 C          65.2322   93.1220   10.6639 C.3     1  UNL1        0.0692
     39 C          66.3351   94.1386   10.6722 C.3     1  UNL1        0.0230
     40 C          67.4069   94.0911    9.6239 C.3     1  UNL1        0.0431
     41 C          68.2337   92.8513    9.4524 C.2     1  UNL1        0.0504
     42 O          68.6426   92.0504   10.6529 O.co2   1  UNL1       -0.5492
     43 O          68.6516   92.4125    8.0802 O.co2   1  UNL1       -0.5492
@<TRIPOS>UNITY_ATOM_ATTR
42 1
charge -1
@<TRIPOS>BOND
     1    17    18    1
     2    18    10    1
     3    10    11   ar
     4    11    12   ar
     5    12    13   ar
     6    13    14   ar
     7    14     1    1
     8     1     2   ar
     9     2     3    1
    10     2     4   ar
    11     4    19    1
    12    19    20    1
    13    20    21   ar
    14    21    22    1
    15    21    23   ar
    16    23    24   ar
    17    24    25   ar
    18    25    26   ar
    19    26    27    1
    20     4     5   ar
    21     5     6    2
    22     5     7   ar
    23     7    28    1
    24    29    28    1
    25    29    36    1
    26    36    38    1
    27    38    39    1
    28    39    40    1
    29    40    41    1
    30    41    42   ar
    31    41    43   ar
    32    29    30    1
    33    30    31   ar
    34    31    32   ar
    35    32    33   ar
    36    33    34   ar
    37    34    35   ar
    38     7     8   ar
    39     8     9    2
    40    14    15   ar
    41    15    16    1
    42    15    10   ar
    43     8     1   ar
    44    26    20   ar
    45    35    30   ar
    46    36    37    1
