@<TRIPOS>MOLECULE
*****
 28 31 0 0 0
SMALL
GASTEIGER

@<TRIPOS>ATOM
      1 C          66.3302   93.3698   12.9366 C.3     1  UNL1        0.0519
      2 C          65.3787   92.2309   12.7181 C.ar    1  UNL1        0.0598
      3 N          64.6789   92.0807   11.3998 N.ar    1  UNL1       -0.2311
      4 C          63.7275   90.9418   11.1812 C.ar    1  UNL1        0.1649
      5 C          62.8986   90.5395    9.9976 C.ar    1  UNL1        0.0596
      6 C          62.1346   89.3023   10.3658 C.ar    1  UNL1        0.1044
      7 N          62.4914   88.9399   11.7769 N.ar    1  UNL1       -0.1637
      8 N          63.4758   89.9532   12.2810 N.ar    1  UNL1       -0.2124
      9 C          64.1756   90.1035   13.5992 C.ar    1  UNL1        0.0836
     10 C          65.1271   91.2423   13.8177 C.ar    1  UNL1        0.0248
     11 C          63.9240   89.1149   14.6989 C.ar    1  UNL1        0.0282
     12 C          64.3138   87.6776   14.5190 C.ar    1  UNL1        0.0032
     13 C          64.0620   86.6891   15.6188 C.ar    1  UNL1        0.0115
     14 C          63.4206   87.1377   16.8984 C.ar    1  UNL1        0.0585
     15 CL         63.1689   86.1492   17.9980 Cl      1  UNL1       -0.0822
     16 C          63.0308   88.5751   17.0781 C.ar    1  UNL1        0.0228
     17 C          63.2825   89.5636   15.9785 C.ar    1  UNL1        0.0599
     18 CL         62.8927   91.0009   16.1582 Cl      1  UNL1       -0.0822
     19 C          61.1813   88.5580    9.4785 C.ar    1  UNL1        0.0195
     20 C          61.2073   87.0588    9.4403 C.ar    1  UNL1        0.0016
     21 C          60.2538   86.3146    8.5530 C.ar    1  UNL1        0.0000
     22 C          59.2745   87.0696    7.7040 C.ar    1  UNL1        0.0000
     23 C          59.2486   88.5688    7.7422 C.ar    1  UNL1        0.0000
     24 C          60.2020   89.3130    8.6295 C.ar    1  UNL1        0.0016
     25 C          65.8269   91.3925   15.1360 C.3     1  UNL1        0.0949
     26 N          65.6588   92.6507   15.9351 N.3     1  UNL1       -0.3174
     27 H          66.0763   93.4325   15.4302 H       1  UNL1        0.1192
     28 H          66.1205   92.5440   16.8384 H       1  UNL1        0.1192
@<TRIPOS>BOND
     1     1     2    1
     2     2     3   ar
     3     3     4   ar
     4     4     5   ar
     5     5     6   ar
     6     6    19    1
     7    19    20   ar
     8    20    21   ar
     9    21    22   ar
    10    22    23   ar
    11    23    24   ar
    12     6     7   ar
    13     7     8   ar
    14     8     9   ar
    15     9    11    1
    16    11    12   ar
    17    12    13   ar
    18    13    14   ar
    19    14    15    1
    20    14    16   ar
    21    16    17   ar
    22    17    18    1
    23     9    10   ar
    24    10    25    1
    25    25    26    1
    26    10     2   ar
    27     8     4   ar
    28    17    11   ar
    29    24    19   ar
    30    26    27    1
    31    26    28    1
@<TRIPOS>MOLECULE
*****
 28 31 0 0 0
SMALL
GASTEIGER

@<TRIPOS>ATOM
      1 C          58.9894   88.5335    7.4142 C.3     1  UNL1        0.0519
      2 C          60.0522   88.5080    8.4725 C.ar    1  UNL1        0.0598
      3 N          60.5430   89.7917    9.0736 N.ar    1  UNL1       -0.2311
      4 C          61.6058   89.7661   10.1319 C.ar    1  UNL1        0.1649
      5 C          62.2821   90.8615   10.9017 C.ar    1  UNL1        0.0596
      6 C          63.2721   90.2292   11.8346 C.ar    1  UNL1        0.1044
      7 N          63.2076   88.7431   11.6413 N.ar    1  UNL1       -0.1637
      8 N          62.1778   88.4569   10.5889 N.ar    1  UNL1       -0.2124
      9 C          61.6869   87.1733    9.9877 C.ar    1  UNL1        0.0836
     10 C          60.6241   87.1989    8.9295 C.ar    1  UNL1        0.0248
     11 C          62.2589   85.8641   10.4448 C.ar    1  UNL1        0.0282
     12 C          61.9842   85.3698   11.8341 C.ar    1  UNL1        0.0032
     13 C          62.5562   84.0606   12.2911 C.ar    1  UNL1        0.0115
     14 C          63.4028   83.2457   11.3588 C.ar    1  UNL1        0.0585
     15 CL         63.9748   81.9365   11.8158 Cl      1  UNL1       -0.0822
     16 C          63.6775   83.7400    9.9695 C.ar    1  UNL1        0.0228
     17 C          63.1056   85.0491    9.5125 C.ar    1  UNL1        0.0599
     18 CL         63.3802   85.5436    8.1232 Cl      1  UNL1       -0.0822
     19 C          64.1691   90.9556   12.7927 C.ar    1  UNL1        0.0195
     20 C          65.0619   92.0546   12.2978 C.ar    1  UNL1        0.0016
     21 C          65.9589   92.7809   13.2559 C.ar    1  UNL1        0.0000
     22 C          65.9630   92.4082   14.7089 C.ar    1  UNL1        0.0000
     23 C          65.0702   91.3092   15.2038 C.ar    1  UNL1        0.0000
     24 C          64.1732   90.5829   14.2456 C.ar    1  UNL1        0.0016
     25 C          60.1333   85.9151    8.3284 C.3     1  UNL1        0.0949
     26 N          60.5000   85.5591    6.9182 N.3     1  UNL1       -0.3174
     27 H          60.0684   86.2241    6.2764 H       1  UNL1        0.1192
     28 H          60.1670   84.6182    6.7075 H       1  UNL1        0.1192
@<TRIPOS>BOND
     1     1     2    1
     2     2     3   ar
     3     3     4   ar
     4     4     5   ar
     5     5     6   ar
     6     6    19    1
     7    19    20   ar
     8    20    21   ar
     9    21    22   ar
    10    22    23   ar
    11    23    24   ar
    12     6     7   ar
    13     7     8   ar
    14     8     9   ar
    15     9    11    1
    16    11    12   ar
    17    12    13   ar
    18    13    14   ar
    19    14    15    1
    20    14    16   ar
    21    16    17   ar
    22    17    18    1
    23     9    10   ar
    24    10    25    1
    25    25    26    1
    26    10     2   ar
    27     8     4   ar
    28    17    11   ar
    29    24    19   ar
    30    26    27    1
    31    26    28    1
@<TRIPOS>MOLECULE
*****
 28 31 0 0 0
SMALL
GASTEIGER

@<TRIPOS>ATOM
      1 C          66.0785   92.2850   16.4519 C.3     1  UNL1        0.0519
      2 C          65.5739   92.0518   15.0586 C.ar    1  UNL1        0.0598
      3 N          64.5572   90.9799   14.7988 N.ar    1  UNL1       -0.2311
      4 C          64.0527   90.7466   13.4056 C.ar    1  UNL1        0.1649
      5 C          63.0592   89.7709   12.8481 C.ar    1  UNL1        0.0596
      6 C          62.9573   90.0064   11.3703 C.ar    1  UNL1        0.1044
      7 N          63.8879   91.1278   11.0143 N.ar    1  UNL1       -0.1637
      8 N          64.5649   91.5852   12.2722 N.ar    1  UNL1       -0.2124
      9 C          65.5816   92.6571   12.5321 C.ar    1  UNL1        0.0836
     10 C          66.0861   92.8903   13.9253 C.ar    1  UNL1        0.0248
     11 C          66.0938   93.4956   11.3988 C.ar    1  UNL1        0.0282
     12 C          65.4180   94.7910   11.0592 C.ar    1  UNL1        0.0032
     13 C          65.9302   95.6295    9.9258 C.ar    1  UNL1        0.0115
     14 C          67.1182   95.1728    9.1321 C.ar    1  UNL1        0.0585
     15 CL         67.6304   96.0113    7.9988 Cl      1  UNL1       -0.0822
     16 C          67.7940   93.8774    9.4718 C.ar    1  UNL1        0.0228
     17 C          67.2818   93.0388   10.6050 C.ar    1  UNL1        0.0599
     18 CL         67.9576   91.7435   10.9448 Cl      1  UNL1       -0.0822
     19 C          62.0791   89.2530   10.4158 C.ar    1  UNL1        0.0195
     20 C          60.9325   89.9481    9.7433 C.ar    1  UNL1        0.0016
     21 C          60.0543   89.1945    8.7889 C.ar    1  UNL1        0.0000
     22 C          60.3226   87.7459    8.5069 C.ar    1  UNL1        0.0000
     23 C          61.4691   87.0508    9.1794 C.ar    1  UNL1        0.0000
     24 C          62.3473   87.8043   10.1339 C.ar    1  UNL1        0.0016
     25 C          67.1028   93.9622   14.1852 C.3     1  UNL1        0.0949
     26 N          68.4098   93.6146   14.8339 N.3     1  UNL1       -0.3174
     27 H          68.2423   93.3027   15.7905 H       1  UNL1        0.1192
     28 H          69.0131   94.4370   14.8452 H       1  UNL1        0.1192
@<TRIPOS>BOND
     1     1     2    1
     2     2     3   ar
     3     3     4   ar
     4     4     5   ar
     5     5     6   ar
     6     6    19    1
     7    19    20   ar
     8    20    21   ar
     9    21    22   ar
    10    22    23   ar
    11    23    24   ar
    12     6     7   ar
    13     7     8   ar
    14     8     9   ar
    15     9    11    1
    16    11    12   ar
    17    12    13   ar
    18    13    14   ar
    19    14    15    1
    20    14    16   ar
    21    16    17   ar
    22    17    18    1
    23     9    10   ar
    24    10    25    1
    25    25    26    1
    26    10     2   ar
    27     8     4   ar
    28    17    11   ar
    29    24    19   ar
    30    26    27    1
    31    26    28    1
