@<TRIPOS>MOLECULE
*****
 31 33 0 0 0
SMALL
GASTEIGER

@<TRIPOS>ATOM
      1 C          64.2908   89.7695   14.2387 C.ar    1  UNL1        0.0942
      2 C          65.3701   90.6300   14.8257 C.ar    1  UNL1        0.1078
      3 N          65.7786   91.8969   14.1341 N.ar    1  UNL1       -0.2119
      4 C          65.1076   92.3033   12.8555 C.ar    1  UNL1        0.2207
      5 N          64.0283   91.4428   12.2685 N.ar    1  UNL1       -0.2094
      6 C          63.6198   90.1759   12.9601 C.ar    1  UNL1        0.1613
      7 O          62.8862   88.5475   16.0508 O.2     1  UNL1       -0.2700
      8 C          63.8823   88.5027   14.9302 C.2     1  UNL1        0.2488
      9 N          64.4700   87.1910   14.5011 N.am    1  UNL1       -0.3008
     10 H          65.1237   87.1615   13.7656 H       1  UNL1        0.1497
     11 C          64.0615   85.9241   15.1926 C.3     1  UNL1        0.0898
     12 C          63.4780   84.7918   14.4005 C.3     1  UNL1        0.0246
     13 C          63.4538   84.8589   12.9022 C.3     1  UNL1        0.0338
     14 C          62.8703   83.7266   12.1101 C.3     1  UNL1        0.1422
     15 O          62.3109   82.5272   12.8164 O.3     1  UNL1       -0.3538
     16 C          62.3351   82.4602   14.3146 C.3     1  UNL1        0.1422
     17 C          62.9187   83.5925   15.1067 C.3     1  UNL1        0.0338
     18 C          62.5405   89.3154   12.3731 C.3     1  UNL1        0.4351
     19 F          61.4611   88.4550   11.7861 F       1  UNL1       -0.1644
     20 F          63.5791   88.4903   11.6728 F       1  UNL1       -0.1644
     21 F          61.5018   90.1406   13.0734 F       1  UNL1       -0.1644
     22 N          65.5161   93.5701   12.1640 N.pl3   1  UNL1       -0.2808
     23 H          65.1669   94.4360   12.4763 H       1  UNL1        0.1551
     24 C          66.4565   93.5177   10.9966 C.ar    1  UNL1        0.0791
     25 C          67.2610   92.2787   10.7367 C.ar    1  UNL1        0.0170
     26 C          68.2015   92.2263    9.5693 C.ar    1  UNL1        0.0023
     27 C          68.3374   93.4129    8.6618 C.ar    1  UNL1        0.0138
     28 C          67.5328   94.6519    8.9217 C.ar    1  UNL1        0.0863
     29 CL         67.6687   95.8385    8.0142 Cl      1  UNL1       -0.0799
     30 C          66.5924   94.7043   10.0891 C.ar    1  UNL1        0.1639
     31 F          65.7878   95.9433   10.3490 F       1  UNL1       -0.2020
@<TRIPOS>BOND
     1     7     8    2
     2     8     9   am
     3     9    11    1
     4    11    12    1
     5    12    13    1
     6    13    14    1
     7    14    15    1
     8    15    16    1
     9    16    17    1
    10     8     1    1
    11     1     2   ar
    12     2     3   ar
    13     3     4   ar
    14     4    22    1
    15    22    24    1
    16    24    25   ar
    17    25    26   ar
    18    26    27   ar
    19    27    28   ar
    20    28    29    1
    21    28    30   ar
    22    30    31    1
    23     4     5   ar
    24     5     6   ar
    25     6    18    1
    26    18    19    1
    27    18    20    1
    28    18    21    1
    29    17    12    1
    30     6     1   ar
    31    30    24   ar
    32     9    10    1
    33    22    23    1
@<TRIPOS>MOLECULE
*****
 31 33 0 0 0
SMALL
GASTEIGER

@<TRIPOS>ATOM
      1 C          63.0593   89.6528   11.9455 C.ar    1  UNL1        0.0942
      2 C          63.1930   90.4951   10.7116 C.ar    1  UNL1        0.1078
      3 N          64.0263   91.7420   10.7414 N.ar    1  UNL1       -0.2119
      4 C          64.7259   92.1465   12.0052 C.ar    1  UNL1        0.2207
      5 N          64.5922   91.3041   13.2391 N.ar    1  UNL1       -0.2094
      6 C          63.7589   90.0572   13.2092 C.ar    1  UNL1        0.1613
      7 O          60.7303   88.5017   11.9775 O.2     1  UNL1       -0.2700
      8 C          62.2260   88.4059   11.9158 C.2     1  UNL1        0.2488
      9 N          62.8884   87.0631   11.8243 N.am    1  UNL1       -0.3008
     10 H          63.8700   87.0002   11.7838 H       1  UNL1        0.1497
     11 C          62.0551   85.8163   11.7945 C.3     1  UNL1        0.0898
     12 C          62.6917   84.4823   12.0503 C.3     1  UNL1        0.0246
     13 C          62.6789   83.8978   13.4316 C.3     1  UNL1        0.0338
     14 C          63.3156   82.5639   13.6874 C.3     1  UNL1        0.1422
     15 O          63.9651   81.8147   12.5619 O.3     1  UNL1       -0.3538
     16 C          63.9779   82.3992   11.1806 C.3     1  UNL1        0.1422
     17 C          63.3412   83.7331   10.9248 C.3     1  UNL1        0.0338
     18 C          63.6252   89.2148   14.4431 C.3     1  UNL1        0.4351
     19 F          63.4915   88.3724   15.6770 F       1  UNL1       -0.1644
     20 F          64.7893   88.3795   13.9990 F       1  UNL1       -0.1644
     21 F          62.4611   90.0501   14.8872 F       1  UNL1       -0.1644
     22 N          65.5592   93.3934   12.0349 N.pl3   1  UNL1       -0.2808
     23 H          65.5251   93.9897   12.8176 H       1  UNL1        0.1551
     24 C          66.4446   93.7317   10.8723 C.ar    1  UNL1        0.0791
     25 C          67.3260   92.6784   10.2693 C.ar    1  UNL1        0.0170
     26 C          68.2113   93.0168    9.1067 C.ar    1  UNL1        0.0023
     27 C          68.2153   94.4084    8.5471 C.ar    1  UNL1        0.0138
     28 C          67.3338   95.4617    9.1500 C.ar    1  UNL1        0.0863
     29 CL         67.3377   96.8535    8.5904 Cl      1  UNL1       -0.0799
     30 C          66.4485   95.1234   10.3127 C.ar    1  UNL1        0.1639
     31 F          65.5670   96.1767   10.9156 F       1  UNL1       -0.2020
@<TRIPOS>BOND
     1     7     8    2
     2     8     9   am
     3     9    11    1
     4    11    12    1
     5    12    13    1
     6    13    14    1
     7    14    15    1
     8    15    16    1
     9    16    17    1
    10     8     1    1
    11     1     2   ar
    12     2     3   ar
    13     3     4   ar
    14     4    22    1
    15    22    24    1
    16    24    25   ar
    17    25    26   ar
    18    26    27   ar
    19    27    28   ar
    20    28    29    1
    21    28    30   ar
    22    30    31    1
    23     4     5   ar
    24     5     6   ar
    25     6    18    1
    26    18    19    1
    27    18    20    1
    28    18    21    1
    29    17    12    1
    30     6     1   ar
    31    30    24   ar
    32     9    10    1
    33    22    23    1
@<TRIPOS>MOLECULE
*****
 31 33 0 0 0
SMALL
GASTEIGER

@<TRIPOS>ATOM
      1 C          62.9686   89.0894   12.0496 C.ar    1  UNL1        0.0942
      2 C          63.8909   89.3525   13.2029 C.ar    1  UNL1        0.1078
      3 N          64.6373   90.6510   13.2852 N.ar    1  UNL1       -0.2119
      4 C          64.4614   91.6864   12.2142 C.ar    1  UNL1        0.2207
      5 N          63.5391   91.4233   11.0609 N.ar    1  UNL1       -0.2094
      6 C          62.7927   90.1247   10.9786 C.ar    1  UNL1        0.1613
      7 O          60.7346   87.7918   11.7745 O.2     1  UNL1       -0.2700
      8 C          62.2222   87.7909   11.9673 C.2     1  UNL1        0.2488
      9 N          62.9634   86.4914   12.0778 N.am    1  UNL1       -0.3008
     10 H          63.9397   86.4908   12.2044 H       1  UNL1        0.1497
     11 C          62.2170   85.1930   11.9955 C.3     1  UNL1        0.0898
     12 C          62.6923   84.0038   12.7766 C.3     1  UNL1        0.0246
     13 C          62.6961   82.6438   12.1440 C.3     1  UNL1        0.0338
     14 C          63.1714   81.4547   12.9251 C.3     1  UNL1        0.1422
     15 O          63.6430   81.6256   14.3387 O.3     1  UNL1       -0.3538
     16 C          63.6392   82.9857   14.9713 C.3     1  UNL1        0.1422
     17 C          63.1639   84.1748   14.1902 C.3     1  UNL1        0.0338
     18 C          61.8703   89.8616    9.8254 C.3     1  UNL1        0.4351
     19 F          60.9480   89.5985    8.6721 F       1  UNL1       -0.1644
     20 F          60.8966   90.8608   10.3761 F       1  UNL1       -0.1644
     21 F          62.8441   88.8624    9.2746 F       1  UNL1       -0.1644
     22 N          65.2078   92.9849   12.2965 N.pl3   1  UNL1       -0.2808
     23 H          65.0568   93.5922   13.0565 H       1  UNL1        0.1551
     24 C          66.1843   93.3582   11.2208 C.ar    1  UNL1        0.0791
     25 C          67.0522   92.3055   10.5976 C.ar    1  UNL1        0.0170
     26 C          68.0287   92.6787    9.5219 C.ar    1  UNL1        0.0023
     27 C          68.1373   94.1047    9.0694 C.ar    1  UNL1        0.0138
     28 C          67.2694   95.1574    9.6927 C.ar    1  UNL1        0.0863
     29 CL         67.3779   96.5835    9.2402 Cl      1  UNL1       -0.0799
     30 C          66.2929   94.7841   10.7683 C.ar    1  UNL1        0.1639
     31 F          65.4249   95.8369   11.3916 F       1  UNL1       -0.2020
@<TRIPOS>BOND
     1     7     8    2
     2     8     9   am
     3     9    11    1
     4    11    12    1
     5    12    13    1
     6    13    14    1
     7    14    15    1
     8    15    16    1
     9    16    17    1
    10     8     1    1
    11     1     2   ar
    12     2     3   ar
    13     3     4   ar
    14     4    22    1
    15    22    24    1
    16    24    25   ar
    17    25    26   ar
    18    26    27   ar
    19    27    28   ar
    20    28    29    1
    21    28    30   ar
    22    30    31    1
    23     4     5   ar
    24     5     6   ar
    25     6    18    1
    26    18    19    1
    27    18    20    1
    28    18    21    1
    29    17    12    1
    30     6     1   ar
    31    30    24   ar
    32     9    10    1
    33    22    23    1
@<TRIPOS>MOLECULE
*****
 31 33 0 0 0
SMALL
GASTEIGER

@<TRIPOS>ATOM
      1 C          64.5643   90.0804   14.1752 C.ar    1  UNL1        0.0942
      2 C          65.7100   90.7902   14.8336 C.ar    1  UNL1        0.1078
      3 N          66.1753   92.1145   14.3049 N.ar    1  UNL1       -0.2119
      4 C          65.4948   92.7292   13.1178 C.ar    1  UNL1        0.2207
      5 N          64.3490   92.0194   12.4594 N.ar    1  UNL1       -0.2094
      6 C          63.8838   90.6950   12.9881 C.ar    1  UNL1        0.1613
      7 O          63.3648   88.6858   16.0099 O.2     1  UNL1       -0.2700
      8 C          64.0990   88.7560   14.7038 C.2     1  UNL1        0.2488
      9 N          64.3681   87.5017   13.9263 N.am    1  UNL1       -0.3008
     10 H          64.8500   87.5477   13.0691 H       1  UNL1        0.1497
     11 C          63.9028   86.1773   14.4550 C.3     1  UNL1        0.0898
     12 C          63.7222   85.0181   13.5202 C.3     1  UNL1        0.0246
     13 C          64.4109   83.7152   13.7992 C.3     1  UNL1        0.0338
     14 C          64.2302   82.5561   12.8644 C.3     1  UNL1        0.1422
     15 O          63.3608   82.7000   11.6506 O.3     1  UNL1       -0.3538
     16 C          62.6721   84.0030   11.3715 C.3     1  UNL1        0.1422
     17 C          62.8527   85.1620   12.3063 C.3     1  UNL1        0.0338
     18 C          62.7381   89.9852   12.3297 C.3     1  UNL1        0.4351
     19 F          61.5924   89.2754   11.6712 F       1  UNL1       -0.1644
     20 F          61.9336   90.1155   13.5890 F       1  UNL1       -0.1644
     21 F          63.5425   89.8548   11.0703 F       1  UNL1       -0.1644
     22 N          65.9600   94.0536   12.5892 N.pl3   1  UNL1       -0.2808
     23 H          65.9246   94.8526   13.1632 H       1  UNL1        0.1551
     24 C          66.4792   94.1605   11.1860 C.ar    1  UNL1        0.0791
     25 C          66.0757   95.3193   10.3232 C.ar    1  UNL1        0.0170
     26 C          66.5950   95.4263    8.9200 C.ar    1  UNL1        0.0023
     27 C          67.5177   94.3744    8.3795 C.ar    1  UNL1        0.0138
     28 C          67.9211   93.2156    9.2423 C.ar    1  UNL1        0.0863
     29 CL         68.8439   92.1637    8.7018 Cl      1  UNL1       -0.0799
     30 C          67.4019   93.1087   10.6455 C.ar    1  UNL1        0.1639
     31 F          67.8055   91.9498   11.5082 F       1  UNL1       -0.2020
@<TRIPOS>BOND
     1     7     8    2
     2     8     9   am
     3     9    11    1
     4    11    12    1
     5    12    13    1
     6    13    14    1
     7    14    15    1
     8    15    16    1
     9    16    17    1
    10     8     1    1
    11     1     2   ar
    12     2     3   ar
    13     3     4   ar
    14     4    22    1
    15    22    24    1
    16    24    25   ar
    17    25    26   ar
    18    26    27   ar
    19    27    28   ar
    20    28    29    1
    21    28    30   ar
    22    30    31    1
    23     4     5   ar
    24     5     6   ar
    25     6    18    1
    26    18    19    1
    27    18    20    1
    28    18    21    1
    29    17    12    1
    30     6     1   ar
    31    30    24   ar
    32     9    10    1
    33    22    23    1
@<TRIPOS>MOLECULE
*****
 31 33 0 0 0
SMALL
GASTEIGER

@<TRIPOS>ATOM
      1 C          63.5806   89.3071   12.7290 C.ar    1  UNL1        0.0942
      2 C          63.1283   88.0655   12.0191 C.ar    1  UNL1        0.1078
      3 N          63.1997   86.7371   12.7121 N.ar    1  UNL1       -0.2119
      4 C          63.7234   86.6503   14.1152 C.ar    1  UNL1        0.2207
      5 N          64.1756   87.8919   14.8251 N.ar    1  UNL1       -0.2094
      6 C          64.1042   89.2203   14.1319 C.ar    1  UNL1        0.1613
      7 O          62.1913   91.1533   11.5410 O.2     1  UNL1       -0.2700
      8 C          63.5092   90.6354   12.0360 C.2     1  UNL1        0.2488
      9 N          64.7557   91.4460   11.8379 N.am    1  UNL1       -0.3008
     10 H          65.6207   91.1062   12.1628 H       1  UNL1        0.1497
     11 C          64.6843   92.7744   11.1449 C.3     1  UNL1        0.0898
     12 C          65.9227   93.3784   10.5517 C.3     1  UNL1        0.0246
     13 C          66.0275   94.8657   10.3884 C.3     1  UNL1        0.0338
     14 C          67.2658   95.4696    9.7952 C.3     1  UNL1        0.1422
     15 O          68.3992   94.5862    9.3653 O.3     1  UNL1       -0.3538
     16 C          68.2944   93.0988    9.5286 C.3     1  UNL1        0.1422
     17 C          67.0561   92.4949   10.1218 C.3     1  UNL1        0.0338
     18 C          64.5564   90.4619   14.8418 C.3     1  UNL1        0.4351
     19 F          65.0087   91.7035   15.5517 F       1  UNL1       -0.1644
     20 F          65.9707   90.1846   14.4260 F       1  UNL1       -0.1644
     21 F          63.1422   90.7392   15.2577 F       1  UNL1       -0.1644
     22 N          63.7947   85.3220   14.8082 N.pl3   1  UNL1       -0.2808
     23 H          63.9879   85.2797   15.7726 H       1  UNL1        0.1551
     24 C          63.5719   84.0580   14.0318 C.ar    1  UNL1        0.0791
     25 C          64.4450   83.7367   12.8552 C.ar    1  UNL1        0.0170
     26 C          64.2221   82.4728   12.0788 C.ar    1  UNL1        0.0023
     27 C          63.1262   81.5301   12.4790 C.ar    1  UNL1        0.0138
     28 C          62.2531   81.8514   13.6556 C.ar    1  UNL1        0.0863
     29 CL         61.1570   80.9087   14.0559 Cl      1  UNL1       -0.0799
     30 C          62.4759   83.1154   14.4320 C.ar    1  UNL1        0.1639
     31 F          61.6027   83.4366   15.6086 F       1  UNL1       -0.2020
@<TRIPOS>BOND
     1     7     8    2
     2     8     9   am
     3     9    11    1
     4    11    12    1
     5    12    13    1
     6    13    14    1
     7    14    15    1
     8    15    16    1
     9    16    17    1
    10     8     1    1
    11     1     2   ar
    12     2     3   ar
    13     3     4   ar
    14     4    22    1
    15    22    24    1
    16    24    25   ar
    17    25    26   ar
    18    26    27   ar
    19    27    28   ar
    20    28    29    1
    21    28    30   ar
    22    30    31    1
    23     4     5   ar
    24     5     6   ar
    25     6    18    1
    26    18    19    1
    27    18    20    1
    28    18    21    1
    29    17    12    1
    30     6     1   ar
    31    30    24   ar
    32     9    10    1
    33    22    23    1
@<TRIPOS>MOLECULE
*****
 31 33 0 0 0
SMALL
GASTEIGER

@<TRIPOS>ATOM
      1 C          63.1631   89.0597   12.1199 C.ar    1  UNL1        0.0942
      2 C          63.9113   88.7507   13.3827 C.ar    1  UNL1        0.1078
      3 N          63.8886   87.3610   13.9469 N.ar    1  UNL1       -0.2119
      4 C          63.1178   86.2804   13.2482 C.ar    1  UNL1        0.2207
      5 N          62.3696   86.5894   11.9854 N.ar    1  UNL1       -0.2094
      6 C          62.3923   87.9792   11.4213 C.ar    1  UNL1        0.1613
      7 O          61.9088   91.1001   11.1132 O.2     1  UNL1       -0.2700
      8 C          63.1858   90.4494   11.5558 C.2     1  UNL1        0.2488
      9 N          64.4855   91.1884   11.4341 N.am    1  UNL1       -0.3008
     10 H          65.3236   90.7613   11.7246 H       1  UNL1        0.1497
     11 C          64.5081   92.5780   10.8700 C.3     1  UNL1        0.0898
     12 C          65.8078   93.1927   10.4420 C.3     1  UNL1        0.0246
     13 C          66.9778   92.3159   10.1069 C.3     1  UNL1        0.0338
     14 C          68.2774   92.9306    9.6790 C.3     1  UNL1        0.1422
     15 O          68.4070   94.4220    9.5862 O.3     1  UNL1       -0.3538
     16 C          67.2371   95.2989    9.9212 C.3     1  UNL1        0.1422
     17 C          65.9375   94.6842   10.3492 C.3     1  UNL1        0.0338
     18 C          61.6441   88.2883   10.1584 C.3     1  UNL1        0.4351
     19 F          60.8960   88.5974    8.8956 F       1  UNL1       -0.1644
     20 F          62.8836   88.0182    9.3580 F       1  UNL1       -0.1644
     21 F          60.4047   88.5584   10.9589 F       1  UNL1       -0.1644
     22 N          63.0951   84.8907   13.8124 N.pl3   1  UNL1       -0.2808
     23 H          63.0356   84.7555   14.7857 H       1  UNL1        0.1551
     24 C          63.1633   83.7070   12.8935 C.ar    1  UNL1        0.0791
     25 C          63.7149   83.8642   11.5076 C.ar    1  UNL1        0.0170
     26 C          63.7831   82.6805   10.5888 C.ar    1  UNL1        0.0023
     27 C          63.2995   81.3397   11.0559 C.ar    1  UNL1        0.0138
     28 C          62.7479   81.1825   12.4418 C.ar    1  UNL1        0.0863
     29 CL         62.2643   79.8416   12.9090 Cl      1  UNL1       -0.0799
     30 C          62.6797   82.3662   13.3607 C.ar    1  UNL1        0.1639
     31 F          62.1281   82.2089   14.7467 F       1  UNL1       -0.2020
@<TRIPOS>BOND
     1     7     8    2
     2     8     9   am
     3     9    11    1
     4    11    12    1
     5    12    13    1
     6    13    14    1
     7    14    15    1
     8    15    16    1
     9    16    17    1
    10     8     1    1
    11     1     2   ar
    12     2     3   ar
    13     3     4   ar
    14     4    22    1
    15    22    24    1
    16    24    25   ar
    17    25    26   ar
    18    26    27   ar
    19    27    28   ar
    20    28    29    1
    21    28    30   ar
    22    30    31    1
    23     4     5   ar
    24     5     6   ar
    25     6    18    1
    26    18    19    1
    27    18    20    1
    28    18    21    1
    29    17    12    1
    30     6     1   ar
    31    30    24   ar
    32     9    10    1
    33    22    23    1
@<TRIPOS>MOLECULE
*****
 31 33 0 0 0
SMALL
GASTEIGER

@<TRIPOS>ATOM
      1 C          63.6732   89.5064   12.8658 C.ar    1  UNL1        0.0942
      2 C          63.9856   88.3131   13.7193 C.ar    1  UNL1        0.1078
      3 N          63.3801   86.9797   13.3947 N.ar    1  UNL1       -0.2119
      4 C          62.4621   86.8396   12.2166 C.ar    1  UNL1        0.2207
      5 N          62.1496   88.0330   11.3632 N.ar    1  UNL1       -0.2094
      6 C          62.7552   89.3664   11.6879 C.ar    1  UNL1        0.1613
      7 O          63.9582   91.5121   14.4924 O.2     1  UNL1       -0.2700
      8 C          64.2787   90.8398   13.1904 C.2     1  UNL1        0.2488
      9 N          65.2049   91.5009   12.2130 N.am    1  UNL1       -0.3008
     10 H          65.4153   91.0596   11.3584 H       1  UNL1        0.1497
     11 C          65.8104   92.8342   12.5375 C.3     1  UNL1        0.0898
     12 C          66.4091   93.6717   11.4465 C.3     1  UNL1        0.0246
     13 C          66.2322   95.1611   11.4615 C.3     1  UNL1        0.0338
     14 C          66.8309   95.9985   10.3705 C.3     1  UNL1        0.1422
     15 O          67.6064   95.3464    9.2644 O.3     1  UNL1       -0.3538
     16 C          67.7832   93.8570    9.2494 C.3     1  UNL1        0.1422
     17 C          67.1846   93.0196   10.3404 C.3     1  UNL1        0.0338
     18 C          62.4428   90.5597   10.8344 C.3     1  UNL1        0.4351
     19 F          62.1304   91.7531    9.9810 F       1  UNL1       -0.1644
     20 F          61.2749   90.8856   11.7176 F       1  UNL1       -0.1644
     21 F          63.6107   90.2339    9.9513 F       1  UNL1       -0.1644
     22 N          61.8565   85.5062   11.8921 N.pl3   1  UNL1       -0.2808
     23 H          60.8807   85.4194   11.7943 H       1  UNL1        0.1551
     24 C          62.7377   84.3051   11.7165 C.ar    1  UNL1        0.0791
     25 C          63.4867   84.1057   10.4324 C.ar    1  UNL1        0.0170
     26 C          64.3679   82.9045   10.2568 C.ar    1  UNL1        0.0023
     27 C          64.4999   81.9028   11.3654 C.ar    1  UNL1        0.0138
     28 C          63.7509   82.1022   12.6496 C.ar    1  UNL1        0.0863
     29 CL         63.8829   81.1004   13.7583 Cl      1  UNL1       -0.0799
     30 C          62.8697   83.3033   12.8251 C.ar    1  UNL1        0.1639
     31 F          62.1206   83.5027   14.1094 F       1  UNL1       -0.2020
@<TRIPOS>BOND
     1     7     8    2
     2     8     9   am
     3     9    11    1
     4    11    12    1
     5    12    13    1
     6    13    14    1
     7    14    15    1
     8    15    16    1
     9    16    17    1
    10     8     1    1
    11     1     2   ar
    12     2     3   ar
    13     3     4   ar
    14     4    22    1
    15    22    24    1
    16    24    25   ar
    17    25    26   ar
    18    26    27   ar
    19    27    28   ar
    20    28    29    1
    21    28    30   ar
    22    30    31    1
    23     4     5   ar
    24     5     6   ar
    25     6    18    1
    26    18    19    1
    27    18    20    1
    28    18    21    1
    29    17    12    1
    30     6     1   ar
    31    30    24   ar
    32     9    10    1
    33    22    23    1
@<TRIPOS>MOLECULE
*****
 31 33 0 0 0
SMALL
GASTEIGER

@<TRIPOS>ATOM
      1 C          63.5261   88.9758   12.8454 C.ar    1  UNL1        0.0942
      2 C          63.1419   87.7397   12.0876 C.ar    1  UNL1        0.1078
      3 N          63.2923   86.3910   12.7267 N.ar    1  UNL1       -0.2119
      4 C          63.8268   86.2785   14.1238 C.ar    1  UNL1        0.2207
      5 N          64.2109   87.5146   14.8816 N.ar    1  UNL1       -0.2094
      6 C          64.0606   88.8633   14.2424 C.ar    1  UNL1        0.1613
      7 O          62.0114   90.8418   11.8588 O.2     1  UNL1       -0.2700
      8 C          63.3758   90.3245   12.2063 C.2     1  UNL1        0.2488
      9 N          64.5898   91.1558   11.9147 N.am    1  UNL1       -0.3008
     10 H          65.4853   90.8162   12.1428 H       1  UNL1        0.1497
     11 C          64.4395   92.5044   11.2756 C.3     1  UNL1        0.0898
     12 C          65.6419   93.2107   10.7228 C.3     1  UNL1        0.0246
     13 C          66.7978   92.4178   10.1889 C.3     1  UNL1        0.0338
     14 C          68.0002   93.1241    9.6362 C.3     1  UNL1        0.1422
     15 O          68.0466   94.6233    9.6174 O.3     1  UNL1       -0.3538
     16 C          66.8906   95.4162   10.1513 C.3     1  UNL1        0.1422
     17 C          65.6883   94.7099   10.7040 C.3     1  UNL1        0.0338
     18 C          64.4447   90.0995   15.0003 C.3     1  UNL1        0.4351
     19 F          64.8289   91.3356   15.7582 F       1  UNL1       -0.1644
     20 F          63.0715   90.1580   15.6009 F       1  UNL1       -0.1644
     21 F          65.8180   90.0410   14.3996 F       1  UNL1       -0.1644
     22 N          63.9771   84.9299   14.7629 N.pl3   1  UNL1       -0.2808
     23 H          64.5006   84.8332   15.5911 H       1  UNL1        0.1551
     24 C          63.3299   83.7284   14.1402 C.ar    1  UNL1        0.0791
     25 C          62.2406   83.0004   14.8704 C.ar    1  UNL1        0.0170
     26 C          61.5934   81.7990   14.2477 C.ar    1  UNL1        0.0023
     27 C          62.0356   81.3256   12.8948 C.ar    1  UNL1        0.0138
     28 C          63.1249   82.0537   12.1646 C.ar    1  UNL1        0.0863
     29 CL         63.5671   81.5803   10.8116 Cl      1  UNL1       -0.0799
     30 C          63.7721   83.2551   12.7873 C.ar    1  UNL1        0.1639
     31 F          64.8615   83.9831   12.0570 F       1  UNL1       -0.2020
@<TRIPOS>BOND
     1     7     8    2
     2     8     9   am
     3     9    11    1
     4    11    12    1
     5    12    13    1
     6    13    14    1
     7    14    15    1
     8    15    16    1
     9    16    17    1
    10     8     1    1
    11     1     2   ar
    12     2     3   ar
    13     3     4   ar
    14     4    22    1
    15    22    24    1
    16    24    25   ar
    17    25    26   ar
    18    26    27   ar
    19    27    28   ar
    20    28    29    1
    21    28    30   ar
    22    30    31    1
    23     4     5   ar
    24     5     6   ar
    25     6    18    1
    26    18    19    1
    27    18    20    1
    28    18    21    1
    29    17    12    1
    30     6     1   ar
    31    30    24   ar
    32     9    10    1
    33    22    23    1
@<TRIPOS>MOLECULE
*****
 31 33 0 0 0
SMALL
GASTEIGER

@<TRIPOS>ATOM
      1 C          63.6033   90.1966   12.0285 C.ar    1  UNL1        0.0942
      2 C          63.1853   89.9834   10.6038 C.ar    1  UNL1        0.1078
      3 N          62.5710   88.6792   10.1896 N.ar    1  UNL1       -0.2119
      4 C          62.3747   87.5881   11.2001 C.ar    1  UNL1        0.2207
      5 N          62.7928   87.8013   12.6248 N.ar    1  UNL1       -0.2094
      6 C          63.4071   89.1056   13.0390 C.ar    1  UNL1        0.1613
      7 O          63.9274   92.0690   13.8003 O.2     1  UNL1       -0.2700
      8 C          64.2176   91.5009   12.4427 C.2     1  UNL1        0.2488
      9 N          65.1222   92.2370   11.4993 N.am    1  UNL1       -0.3008
     10 H          65.3127   91.8642   10.6082 H       1  UNL1        0.1497
     11 C          65.7365   93.5412   11.9135 C.3     1  UNL1        0.0898
     12 C          66.3264   94.4543   10.8798 C.3     1  UNL1        0.0246
     13 C          66.2330   95.9414   11.0517 C.3     1  UNL1        0.0338
     14 C          66.8229   96.8544   10.0180 C.3     1  UNL1        0.1422
     15 O          67.5063   96.2801    8.8124 O.3     1  UNL1       -0.3538
     16 C          67.5996   94.7930    8.6406 C.3     1  UNL1        0.1422
     17 C          67.0097   93.8800    9.6742 C.3     1  UNL1        0.0338
     18 C          63.8252   89.3189   14.4637 C.3     1  UNL1        0.4351
     19 F          64.2432   89.5321   15.8884 F       1  UNL1       -0.1644
     20 F          62.4824   89.9139   14.7686 F       1  UNL1       -0.1644
     21 F          65.1679   88.7239   14.1587 F       1  UNL1       -0.1644
     22 N          61.7604   86.2839   10.7859 N.pl3   1  UNL1       -0.2808
     23 H          60.8340   86.2596   10.4537 H       1  UNL1        0.1551
     24 C          62.5576   85.0166   10.8780 C.ar    1  UNL1        0.0791
     25 C          63.2512   84.4769    9.6624 C.ar    1  UNL1        0.0170
     26 C          64.0484   83.2096    9.7545 C.ar    1  UNL1        0.0023
     27 C          64.1520   82.4820   11.0621 C.ar    1  UNL1        0.0138
     28 C          63.4584   83.0217   12.2776 C.ar    1  UNL1        0.0863
     29 CL         63.5620   82.2941   13.5853 Cl      1  UNL1       -0.0799
     30 C          62.6612   84.2890   12.1856 C.ar    1  UNL1        0.1639
     31 F          61.9676   84.8287   13.4012 F       1  UNL1       -0.2020
@<TRIPOS>BOND
     1     7     8    2
     2     8     9   am
     3     9    11    1
     4    11    12    1
     5    12    13    1
     6    13    14    1
     7    14    15    1
     8    15    16    1
     9    16    17    1
    10     8     1    1
    11     1     2   ar
    12     2     3   ar
    13     3     4   ar
    14     4    22    1
    15    22    24    1
    16    24    25   ar
    17    25    26   ar
    18    26    27   ar
    19    27    28   ar
    20    28    29    1
    21    28    30   ar
    22    30    31    1
    23     4     5   ar
    24     5     6   ar
    25     6    18    1
    26    18    19    1
    27    18    20    1
    28    18    21    1
    29    17    12    1
    30     6     1   ar
    31    30    24   ar
    32     9    10    1
    33    22    23    1
