@<TRIPOS>MOLECULE
*****
 24 26 0 0 0
SMALL
GASTEIGER

@<TRIPOS>ATOM
      1 C          62.3267   89.3837   11.9731 C.2     1  UNL1        0.2298
      2 O          60.8971   89.6828   12.3148 O.2     1  UNL1       -0.2744
      3 N          62.6574   88.6485   10.7082 N.am    1  UNL1       -0.2827
      4 H          63.5957   88.4522   10.4839 H       1  UNL1        0.1549
      5 C          61.5585   88.2123    9.7850 C.ar    1  UNL1        0.0638
      6 C          60.7259   89.2372    9.0733 C.ar    1  UNL1        0.0159
      7 C          59.6270   88.8011    8.1501 C.ar    1  UNL1        0.0014
      8 C          59.3608   87.3402    7.9386 C.ar    1  UNL1        0.0014
      9 C          60.1934   86.3153    8.6502 C.ar    1  UNL1        0.0158
     10 C          61.2923   86.7514    9.5734 C.ar    1  UNL1        0.0615
     11 N          62.1249   85.7266   10.2851 N.pl3   1  UNL1       -0.3065
     12 C          62.1512   85.4853   11.7653 C.3     1  UNL1        0.0909
     13 C          63.1200   84.3727   12.0365 C.3     1  UNL1        0.0232
     14 C          63.6925   83.9263   10.7239 C.3     1  UNL1        0.0232
     15 C          63.0775   84.7631    9.6415 C.3     1  UNL1        0.0909
     16 C          63.4256   89.8199   12.8963 C.3     1  UNL1        0.0990
     17 C          64.2829   90.9974   12.5381 C.ar    1  UNL1       -0.0139
     18 C          65.2153   91.5837   13.5563 C.ar    1  UNL1       -0.0038
     19 C          66.0726   92.7613   13.1981 C.ar    1  UNL1       -0.0003
     20 C          65.9976   93.3525   11.8216 C.ar    1  UNL1       -0.0000
     21 C          65.0652   92.7662   10.8032 C.ar    1  UNL1       -0.0003
     22 C          64.2079   91.5887   11.1615 C.ar    1  UNL1       -0.0038
     23 C          64.2010   87.6772   14.1442 C.3     1  UNL1        0.0009
     24 C          63.6670   89.0785   14.1777 C.3     1  UNL1        0.0135
@<TRIPOS>BOND
     1    23    24    1
     2    16    24    1
     3    16     1    1
     4     1     2    2
     5     1     3   am
     6     3     5    1
     7     5     6   ar
     8     6     7   ar
     9     7     8   ar
    10     8     9   ar
    11     9    10   ar
    12    10    11    1
    13    11    12    1
    14    12    13    1
    15    13    14    1
    16    14    15    1
    17    16    17    1
    18    17    18   ar
    19    18    19   ar
    20    19    20   ar
    21    20    21   ar
    22    21    22   ar
    23    10     5   ar
    24    15    11    1
    25    22    17   ar
    26     3     4    1
@<TRIPOS>MOLECULE
*****
 24 26 0 0 0
SMALL
GASTEIGER

@<TRIPOS>ATOM
      1 C          62.3570   90.4788   10.9712 C.2     1  UNL1        0.2298
      2 O          63.2184   91.0429    9.8805 O.2     1  UNL1       -0.2744
      3 N          62.8159   90.5421   12.3979 N.am    1  UNL1       -0.2827
      4 H          62.2505   90.1718   13.1137 H       1  UNL1        0.1549
      5 C          64.1364   91.1694   12.7338 C.ar    1  UNL1        0.0638
      6 C          64.7303   92.2012   11.8213 C.ar    1  UNL1        0.0159
      7 C          66.0507   92.8286   12.1573 C.ar    1  UNL1        0.0014
      8 C          66.7772   92.4242   13.4057 C.ar    1  UNL1        0.0014
      9 C          66.1833   91.3924   14.3182 C.ar    1  UNL1        0.0158
     10 C          64.8628   90.7650   13.9823 C.ar    1  UNL1        0.0615
     11 N          64.2689   89.7332   14.8948 N.pl3   1  UNL1       -0.3065
     12 C          63.4552   90.0075   16.1247 C.3     1  UNL1        0.0909
     13 C          63.0678   88.6898   16.7276 C.3     1  UNL1        0.0232
     14 C          63.6421   87.6011   15.8704 C.3     1  UNL1        0.0232
     15 C          64.3844   88.2460   14.7376 C.3     1  UNL1        0.0909
     16 C          61.0365   89.8515   10.6352 C.3     1  UNL1        0.0990
     17 C          60.9866   88.6251    9.7730 C.ar    1  UNL1       -0.0139
     18 C          62.0384   87.5651    9.9149 C.ar    1  UNL1       -0.0038
     19 C          61.9885   86.3387    9.0527 C.ar    1  UNL1       -0.0003
     20 C          60.8868   86.1723    8.0485 C.ar    1  UNL1       -0.0000
     21 C          59.8349   87.2322    7.9065 C.ar    1  UNL1       -0.0003
     22 C          59.8848   88.4586    8.7688 C.ar    1  UNL1       -0.0038
     23 C          59.0198   89.7709   12.2711 C.3     1  UNL1        0.0009
     24 C          59.7660   90.4505   11.1615 C.3     1  UNL1        0.0135
@<TRIPOS>BOND
     1    23    24    1
     2    16    24    1
     3    16     1    1
     4     1     2    2
     5     1     3   am
     6     3     5    1
     7     5     6   ar
     8     6     7   ar
     9     7     8   ar
    10     8     9   ar
    11     9    10   ar
    12    10    11    1
    13    11    12    1
    14    12    13    1
    15    13    14    1
    16    14    15    1
    17    16    17    1
    18    17    18   ar
    19    18    19   ar
    20    19    20   ar
    21    20    21   ar
    22    21    22   ar
    23    10     5   ar
    24    15    11    1
    25    22    17   ar
    26     3     4    1
@<TRIPOS>MOLECULE
*****
 24 26 0 0 0
SMALL
GASTEIGER

@<TRIPOS>ATOM
      1 C          62.6615   86.2359   12.4193 C.2     1  UNL1        0.2298
      2 O          63.4049   87.5195   12.6427 O.2     1  UNL1       -0.2744
      3 N          61.4185   86.2255   11.5799 N.am    1  UNL1       -0.2827
      4 H          60.9306   85.3830   11.4332 H       1  UNL1        0.1549
      5 C          60.9187   87.4986   10.9639 C.ar    1  UNL1        0.0638
      6 C          60.4244   88.6118   11.8394 C.ar    1  UNL1        0.0159
      7 C          59.9247   89.8849   11.2234 C.ar    1  UNL1        0.0014
      8 C          59.9191   90.0448    9.7320 C.ar    1  UNL1        0.0014
      9 C          60.4134   88.9316    8.8565 C.ar    1  UNL1        0.0158
     10 C          60.9131   87.6585    9.4725 C.ar    1  UNL1        0.0615
     11 N          61.4074   86.5453    8.5970 N.pl3   1  UNL1       -0.3065
     12 C          60.6109   85.8298    7.5464 C.3     1  UNL1        0.0909
     13 C          61.4961   84.7944    6.9185 C.3     1  UNL1        0.0232
     14 C          62.8398   84.8699    7.5810 C.3     1  UNL1        0.0232
     15 C          62.7849   85.9520    8.6183 C.3     1  UNL1        0.0909
     16 C          63.1613   84.9628   13.0353 C.3     1  UNL1        0.0990
     17 C          63.2386   83.7112   12.2121 C.ar    1  UNL1       -0.0139
     18 C          62.5349   82.4680   12.6696 C.ar    1  UNL1       -0.0038
     19 C          62.6122   81.2164   11.8464 C.ar    1  UNL1       -0.0003
     20 C          63.3931   81.2080   10.5658 C.ar    1  UNL1       -0.0000
     21 C          64.0969   82.4513   10.1083 C.ar    1  UNL1       -0.0003
     22 C          64.0196   83.7028   10.9314 C.ar    1  UNL1       -0.0038
     23 C          64.9201   85.4945   14.8720 C.3     1  UNL1        0.0009
     24 C          63.5838   84.9412   14.4743 C.3     1  UNL1        0.0135
@<TRIPOS>BOND
     1    23    24    1
     2    16    24    1
     3    16     1    1
     4     1     2    2
     5     1     3   am
     6     3     5    1
     7     5     6   ar
     8     6     7   ar
     9     7     8   ar
    10     8     9   ar
    11     9    10   ar
    12    10    11    1
    13    11    12    1
    14    12    13    1
    15    13    14    1
    16    14    15    1
    17    16    17    1
    18    17    18   ar
    19    18    19   ar
    20    19    20   ar
    21    20    21   ar
    22    21    22   ar
    23    10     5   ar
    24    15    11    1
    25    22    17   ar
    26     3     4    1
@<TRIPOS>MOLECULE
*****
 24 26 0 0 0
SMALL
GASTEIGER

@<TRIPOS>ATOM
      1 C          62.1519   86.1551   10.9567 C.2     1  UNL1        0.2298
      2 O          62.8456   85.4252    9.8449 O.2     1  UNL1       -0.2744
      3 N          62.0566   85.5323   12.3179 N.am    1  UNL1       -0.2827
      4 H          61.6013   86.0114   13.0476 H       1  UNL1        0.1549
      5 C          62.6551   84.1797   12.5674 C.ar    1  UNL1        0.0638
      6 C          62.6539   83.1467   11.4797 C.ar    1  UNL1        0.0159
      7 C          63.2523   81.7941   11.7292 C.ar    1  UNL1        0.0014
      8 C          63.8520   81.4744   13.0664 C.ar    1  UNL1        0.0014
      9 C          63.8533   82.5074   14.1541 C.ar    1  UNL1        0.0158
     10 C          63.2548   83.8600   13.9046 C.ar    1  UNL1        0.0615
     11 N          63.2561   84.8929   14.9923 N.pl3   1  UNL1       -0.3065
     12 C          64.1011   86.1316   15.0309 C.3     1  UNL1        0.0909
     13 C          63.7799   86.8727   16.2949 C.3     1  UNL1        0.0232
     14 C          62.7363   86.0920   17.0374 C.3     1  UNL1        0.0232
     15 C          62.4126   84.8684   16.2324 C.3     1  UNL1        0.0909
     16 C          61.5534   87.5077   10.7071 C.3     1  UNL1        0.0990
     17 C          62.3258   88.7455   11.0556 C.ar    1  UNL1       -0.0139
     18 C          63.0404   88.8380   12.3712 C.ar    1  UNL1       -0.0038
     19 C          63.8128   90.0758   12.7197 C.ar    1  UNL1       -0.0003
     20 C          63.8706   91.2209   11.7526 C.ar    1  UNL1       -0.0000
     21 C          63.1560   91.1284   10.4370 C.ar    1  UNL1       -0.0003
     22 C          62.3836   89.8906   10.0885 C.ar    1  UNL1       -0.0038
     23 C          59.9251   87.1160    8.7210 C.3     1  UNL1        0.0009
     24 C          60.1826   87.6226   10.1091 C.3     1  UNL1        0.0135
@<TRIPOS>BOND
     1    23    24    1
     2    16    24    1
     3    16     1    1
     4     1     2    2
     5     1     3   am
     6     3     5    1
     7     5     6   ar
     8     6     7   ar
     9     7     8   ar
    10     8     9   ar
    11     9    10   ar
    12    10    11    1
    13    11    12    1
    14    12    13    1
    15    13    14    1
    16    14    15    1
    17    16    17    1
    18    17    18   ar
    19    18    19   ar
    20    19    20   ar
    21    20    21   ar
    22    21    22   ar
    23    10     5   ar
    24    15    11    1
    25    22    17   ar
    26     3     4    1
@<TRIPOS>MOLECULE
*****
 24 26 0 0 0
SMALL
GASTEIGER

@<TRIPOS>ATOM
      1 C          62.5341   85.2916   11.5501 C.2     1  UNL1        0.2298
      2 O          62.9423   84.9028   10.1601 O.2     1  UNL1       -0.2744
      3 N          61.5918   86.4393   11.7617 N.am    1  UNL1       -0.2827
      4 H          61.3239   86.6945   12.6740 H       1  UNL1        0.1549
      5 C          61.0577   87.1983   10.5832 C.ar    1  UNL1        0.0638
      6 C          60.1462   86.5193    9.6044 C.ar    1  UNL1        0.0159
      7 C          59.6121   87.2782    8.4260 C.ar    1  UNL1        0.0014
      8 C          59.9895   88.7161    8.2263 C.ar    1  UNL1        0.0014
      9 C          60.9010   89.3951    9.2052 C.ar    1  UNL1        0.0158
     10 C          61.4351   88.6362   10.3836 C.ar    1  UNL1        0.0615
     11 N          62.3466   89.3153   11.3624 N.pl3   1  UNL1       -0.3065
     12 C          63.1831   88.6359   12.4059 C.3     1  UNL1        0.0909
     13 C          63.9351   89.6936   13.1580 C.3     1  UNL1        0.0232
     14 C          63.5634   91.0267   12.5794 C.3     1  UNL1        0.0232
     15 C          62.5816   90.7928   11.4697 C.3     1  UNL1        0.0909
     16 C          63.0682   84.5326   12.7286 C.3     1  UNL1        0.0990
     17 C          62.7571   83.0735   12.8845 C.ar    1  UNL1       -0.0139
     18 C          62.0340   82.5871   14.1053 C.ar    1  UNL1       -0.0038
     19 C          61.7229   81.1280   14.2612 C.ar    1  UNL1       -0.0003
     20 C          62.1349   80.1554   13.1963 C.ar    1  UNL1       -0.0000
     21 C          62.8580   80.6418   11.9753 C.ar    1  UNL1       -0.0003
     22 C          63.1691   82.1009   11.8194 C.ar    1  UNL1       -0.0038
     23 C          65.0885   84.5287   14.3620 C.3     1  UNL1        0.0009
     24 C          63.9133   85.2327   13.7511 C.3     1  UNL1        0.0135
@<TRIPOS>BOND
     1    23    24    1
     2    16    24    1
     3    16     1    1
     4     1     2    2
     5     1     3   am
     6     3     5    1
     7     5     6   ar
     8     6     7   ar
     9     7     8   ar
    10     8     9   ar
    11     9    10   ar
    12    10    11    1
    13    11    12    1
    14    12    13    1
    15    13    14    1
    16    14    15    1
    17    16    17    1
    18    17    18   ar
    19    18    19   ar
    20    19    20   ar
    21    20    21   ar
    22    21    22   ar
    23    10     5   ar
    24    15    11    1
    25    22    17   ar
    26     3     4    1
@<TRIPOS>MOLECULE
*****
 24 26 0 0 0
SMALL
GASTEIGER

@<TRIPOS>ATOM
      1 C          63.4454   89.4419   12.7294 C.2     1  UNL1        0.2298
      2 O          63.5246   90.6554   11.8513 O.2     1  UNL1       -0.2744
      3 N          62.5822   88.2821   12.3298 N.am    1  UNL1       -0.2827
      4 H          62.5301   87.4856   12.9062 H       1  UNL1        0.1549
      5 C          61.7982   88.3357   11.0521 C.ar    1  UNL1        0.0638
      6 C          61.1384   89.6151   10.6302 C.ar    1  UNL1        0.0159
      7 C          60.3545   89.6688    9.3525 C.ar    1  UNL1        0.0014
      8 C          60.2303   88.4432    8.4967 C.ar    1  UNL1        0.0014
      9 C          60.8901   87.1638    8.9186 C.ar    1  UNL1        0.0158
     10 C          61.6740   87.1101   10.1963 C.ar    1  UNL1        0.0615
     11 N          62.3338   85.8308   10.6182 N.pl3   1  UNL1       -0.3065
     12 C          63.0864   84.8904    9.7243 C.3     1  UNL1        0.0909
     13 C          63.5746   83.7456   10.5617 C.3     1  UNL1        0.0232
     14 C          63.1236   83.9785   11.9732 C.3     1  UNL1        0.0232
     15 C          62.3568   85.2672   12.0081 C.3     1  UNL1        0.0909
     16 C          64.2293   89.3882   14.0072 C.3     1  UNL1        0.0990
     17 C          63.9350   88.3250   15.0235 C.ar    1  UNL1       -0.0139
     18 C          63.2145   88.6780   16.2909 C.ar    1  UNL1       -0.0038
     19 C          62.9201   87.6148   17.3073 C.ar    1  UNL1       -0.0003
     20 C          63.3463   86.1987   17.0563 C.ar    1  UNL1       -0.0000
     21 C          64.0669   85.8457   15.7889 C.ar    1  UNL1       -0.0003
     22 C          64.3612   86.9089   14.7725 C.ar    1  UNL1       -0.0038
     23 C          65.0411   91.5618   15.1761 C.3     1  UNL1        0.0009
     24 C          65.3076   90.3977   14.2685 C.3     1  UNL1        0.0135
@<TRIPOS>BOND
     1    23    24    1
     2    16    24    1
     3    16     1    1
     4     1     2    2
     5     1     3   am
     6     3     5    1
     7     5     6   ar
     8     6     7   ar
     9     7     8   ar
    10     8     9   ar
    11     9    10   ar
    12    10    11    1
    13    11    12    1
    14    12    13    1
    15    13    14    1
    16    14    15    1
    17    16    17    1
    18    17    18   ar
    19    18    19   ar
    20    19    20   ar
    21    20    21   ar
    22    21    22   ar
    23    10     5   ar
    24    15    11    1
    25    22    17   ar
    26     3     4    1
@<TRIPOS>MOLECULE
*****
 24 26 0 0 0
SMALL
GASTEIGER

@<TRIPOS>ATOM
      1 C          63.4484   85.9729   13.4079 C.2     1  UNL1        0.2298
      2 O          64.3123   86.8834   14.2293 O.2     1  UNL1       -0.2744
      3 N          62.6960   86.5149   12.2289 N.am    1  UNL1       -0.2827
      4 H          62.1290   85.9174   11.6897 H       1  UNL1        0.1549
      5 C          62.8075   87.9675   11.8713 C.ar    1  UNL1        0.0638
      6 C          63.4297   88.9320   12.8369 C.ar    1  UNL1        0.0159
      7 C          63.5413   90.3844   12.4794 C.ar    1  UNL1        0.0014
      8 C          63.0306   90.8724   11.1561 C.ar    1  UNL1        0.0014
      9 C          62.4083   89.9079   10.1904 C.ar    1  UNL1        0.0158
     10 C          62.2968   88.4554   10.5480 C.ar    1  UNL1        0.0615
     11 N          61.6746   87.4909    9.5823 N.pl3   1  UNL1       -0.3065
     12 C          60.2330   87.4638    9.1686 C.3     1  UNL1        0.0909
     13 C          60.0521   86.3403    8.1914 C.3     1  UNL1        0.0232
     14 C          61.3820   85.6730    8.0011 C.3     1  UNL1        0.0232
     15 C          62.3847   86.3841    8.8607 C.3     1  UNL1        0.0909
     16 C          63.3369   84.5204   13.7655 C.3     1  UNL1        0.0990
     17 C          63.3644   83.4782   12.6870 C.ar    1  UNL1       -0.0139
     18 C          62.6146   82.1918   12.8678 C.ar    1  UNL1       -0.0038
     19 C          62.6422   81.1496   11.7893 C.ar    1  UNL1       -0.0003
     20 C          63.4196   81.3939   10.5300 C.ar    1  UNL1       -0.0000
     21 C          64.1695   82.6804   10.3491 C.ar    1  UNL1       -0.0003
     22 C          64.1419   83.7226   11.4276 C.ar    1  UNL1       -0.0038
     23 C          62.2967   84.8829   16.1184 C.3     1  UNL1        0.0009
     24 C          63.1978   84.1101   15.2015 C.3     1  UNL1        0.0135
@<TRIPOS>BOND
     1    23    24    1
     2    16    24    1
     3    16     1    1
     4     1     2    2
     5     1     3   am
     6     3     5    1
     7     5     6   ar
     8     6     7   ar
     9     7     8   ar
    10     8     9   ar
    11     9    10   ar
    12    10    11    1
    13    11    12    1
    14    12    13    1
    15    13    14    1
    16    14    15    1
    17    16    17    1
    18    17    18   ar
    19    18    19   ar
    20    19    20   ar
    21    20    21   ar
    22    21    22   ar
    23    10     5   ar
    24    15    11    1
    25    22    17   ar
    26     3     4    1
@<TRIPOS>MOLECULE
*****
 24 26 0 0 0
SMALL
GASTEIGER

@<TRIPOS>ATOM
      1 C          62.6455   85.0844   11.0448 C.2     1  UNL1        0.2298
      2 O          63.0448   84.9044    9.6102 O.2     1  UNL1       -0.2744
      3 N          61.6713   86.1605   11.4228 N.am    1  UNL1       -0.2827
      4 H          61.4092   86.2787   12.3644 H       1  UNL1        0.1549
      5 C          61.0963   87.0566   10.3661 C.ar    1  UNL1        0.0638
      6 C          60.2169   86.4839    9.2943 C.ar    1  UNL1        0.0159
      7 C          59.6420   87.3799    8.2376 C.ar    1  UNL1        0.0014
      8 C          59.9465   88.8486    8.2527 C.ar    1  UNL1        0.0014
      9 C          60.8258   89.4213    9.3245 C.ar    1  UNL1        0.0158
     10 C          61.4008   88.5253   10.3812 C.ar    1  UNL1        0.0615
     11 N          62.2801   89.0980   11.4530 N.pl3   1  UNL1       -0.3065
     12 C          63.1870   88.3191   12.3591 C.3     1  UNL1        0.0909
     13 C          63.8744   89.2898   13.2730 C.3     1  UNL1        0.0232
     14 C          63.3924   90.6686   12.9317 C.3     1  UNL1        0.0232
     15 C          62.4071   90.5501   11.8069 C.3     1  UNL1        0.0909
     16 C          63.2204   84.1884   12.1016 C.3     1  UNL1        0.0990
     17 C          63.2761   84.6503   13.5276 C.ar    1  UNL1       -0.0139
     18 C          64.3438   85.6090   13.9642 C.ar    1  UNL1       -0.0038
     19 C          64.3995   86.0709   15.3903 C.ar    1  UNL1       -0.0003
     20 C          63.3874   85.5741   16.3796 C.ar    1  UNL1       -0.0000
     21 C          62.3197   84.6152   15.9430 C.ar    1  UNL1       -0.0003
     22 C          62.2640   84.1533   14.5170 C.ar    1  UNL1       -0.0038
     23 C          62.8290   81.6397   11.7842 C.3     1  UNL1        0.0009
     24 C          63.7396   82.8305   11.7322 C.3     1  UNL1        0.0135
@<TRIPOS>BOND
     1    23    24    1
     2    16    24    1
     3    16     1    1
     4     1     2    2
     5     1     3   am
     6     3     5    1
     7     5     6   ar
     8     6     7   ar
     9     7     8   ar
    10     8     9   ar
    11     9    10   ar
    12    10    11    1
    13    11    12    1
    14    12    13    1
    15    13    14    1
    16    14    15    1
    17    16    17    1
    18    17    18   ar
    19    18    19   ar
    20    19    20   ar
    21    20    21   ar
    22    21    22   ar
    23    10     5   ar
    24    15    11    1
    25    22    17   ar
    26     3     4    1
@<TRIPOS>MOLECULE
*****
 24 26 0 0 0
SMALL
GASTEIGER

@<TRIPOS>ATOM
      1 C          62.8113   85.9129   12.6323 C.2     1  UNL1        0.2298
      2 O          61.6387   85.5487   11.7708 O.2     1  UNL1       -0.2744
      3 N          63.3639   87.3069   12.5967 N.am    1  UNL1       -0.2827
      4 H          64.1336   87.5458   13.1622 H       1  UNL1        0.1549
      5 C          62.7439   88.3368   11.6995 C.ar    1  UNL1        0.0638
      6 C          62.0419   87.9125   10.4437 C.ar    1  UNL1        0.0159
      7 C          61.4219   88.9424    9.5465 C.ar    1  UNL1        0.0014
      8 C          61.5039   90.3965    9.9052 C.ar    1  UNL1        0.0014
      9 C          62.2059   90.8208   11.1611 C.ar    1  UNL1        0.0158
     10 C          62.8259   89.7909   12.0582 C.ar    1  UNL1        0.0615
     11 N          63.5279   90.2152   13.3141 N.pl3   1  UNL1       -0.3065
     12 C          63.0590   89.9593   14.7157 C.3     1  UNL1        0.0909
     13 C          64.0633   90.5558   15.6567 C.3     1  UNL1        0.0232
     14 C          65.1530   91.1805   14.8366 C.3     1  UNL1        0.0232
     15 C          64.8220   90.9700   13.3888 C.3     1  UNL1        0.0909
     16 C          63.4314   84.8829   13.5295 C.3     1  UNL1        0.0990
     17 C          63.0511   83.4388   13.3884 C.ar    1  UNL1       -0.0139
     18 C          62.2291   82.7724   14.4515 C.ar    1  UNL1       -0.0038
     19 C          61.8488   81.3283   14.3104 C.ar    1  UNL1       -0.0003
     20 C          62.2905   80.5506   13.1063 C.ar    1  UNL1       -0.0000
     21 C          63.1125   81.2170   12.0431 C.ar    1  UNL1       -0.0003
     22 C          63.4928   82.6611   12.1842 C.ar    1  UNL1       -0.0038
     23 C          63.9659   85.7442   15.9216 C.3     1  UNL1        0.0009
     24 C          64.4316   85.2971   14.5676 C.3     1  UNL1        0.0135
@<TRIPOS>BOND
     1    23    24    1
     2    16    24    1
     3    16     1    1
     4     1     2    2
     5     1     3   am
     6     3     5    1
     7     5     6   ar
     8     6     7   ar
     9     7     8   ar
    10     8     9   ar
    11     9    10   ar
    12    10    11    1
    13    11    12    1
    14    12    13    1
    15    13    14    1
    16    14    15    1
    17    16    17    1
    18    17    18   ar
    19    18    19   ar
    20    19    20   ar
    21    20    21   ar
    22    21    22   ar
    23    10     5   ar
    24    15    11    1
    25    22    17   ar
    26     3     4    1
