@<TRIPOS>MOLECULE
*****
 40 44 0 0 0
SMALL
GASTEIGER

@<TRIPOS>ATOM
      1 N          63.4850   86.1433   12.8924 N.ar    1  UNL1       -0.3063
      2 C          62.8412   85.2346   11.8877 C.ar    1  UNL1        0.1240
      3 C          62.2116   86.0881   10.8270 C.ar    1  UNL1        0.1156
      4 C          62.4664   87.5245   11.1762 C.ar    1  UNL1        0.0966
      5 C          63.2534   87.5586   12.4527 C.ar    1  UNL1        0.1349
      6 C          63.6574   88.8740   13.0498 C.ar    1  UNL1        0.2819
      7 O          64.4444   88.9081   14.3263 O.2     1  UNL1       -0.2652
      8 N          63.2744   90.1553   12.3704 N.ar    1  UNL1       -0.2417
      9 C          62.4874   90.1212   11.0939 C.ar    1  UNL1        0.3342
     10 O          62.1045   91.4024   10.4144 O.2     1  UNL1       -0.2462
     11 N          62.0834   88.8058   10.4968 N.ar    1  UNL1       -0.2770
     12 C          61.2964   88.7717    9.2203 C.3     1  UNL1        0.1351
     13 N          62.8290   83.7354   11.9352 N.pl3   1  UNL1       -0.2925
     14 C          62.2317   83.1281   13.1700 C.3     1  UNL1        0.0936
     15 C          62.0737   81.6773   13.5162 C.3     1  UNL1        0.0385
     16 C          62.4738   80.4752   12.7132 C.3     1  UNL1        0.0704
     17 N          63.1309   80.4271   11.3656 N.3     1  UNL1       -0.2960
     18 C          63.5501   81.5693   10.4883 C.3     1  UNL1        0.0903
     19 C          63.4157   83.0415   10.7417 C.3     1  UNL1        0.1092
     20 H          62.4899   79.8831   10.7881 H       1  UNL1        0.1233
     21 C          61.4594   85.5924    9.6277 C.1     1  UNL1        0.1047
     22 N          60.7072   85.0967    8.4283 N.1     1  UNL1       -0.1907
     23 C          64.2297   85.7125   14.1212 C.3     1  UNL1        0.1332
     24 C          62.7793   86.4533   17.7402 C.3     1  UNL1        0.0261
     25 C          63.0380   85.7721   16.4290 C.2     1  UNL1       -0.0460
     26 C          62.3637   84.4696   16.1146 C.3     1  UNL1        0.0261
     27 C          63.9710   86.3935   15.4323 C.2     1  UNL1       -0.0102
     28 C          63.6784   91.4706   12.9674 C.3     1  UNL1        0.1600
     29 C          65.1253   91.7577   13.2404 C.ar    1  UNL1        0.0916
     30 N          66.1005   91.8419   12.1038 N.ar    1  UNL1       -0.2455
     31 C          67.5473   92.1289   12.3767 C.ar    1  UNL1        0.0985
     32 C          68.0188   92.3316   13.7862 C.ar    1  UNL1        0.0198
     33 C          69.4656   92.6186   14.0591 C.ar    1  UNL1        0.0016
     34 C          69.9370   92.8214   15.4685 C.ar    1  UNL1        0.0000
     35 C          68.9618   92.7372   16.6051 C.ar    1  UNL1        0.0000
     36 C          67.5150   92.4502   16.3322 C.ar    1  UNL1        0.0008
     37 C          67.0435   92.2474   14.9228 C.ar    1  UNL1        0.0123
     38 C          65.5967   91.9604   14.6498 C.ar    1  UNL1        0.0839
     39 C          64.6215   91.8762   15.7864 C.1     1  UNL1        0.1017
     40 N          63.6462   91.7920   16.9229 N.1     1  UNL1       -0.1908
@<TRIPOS>BOND
     1    24    25    1
     2    25    26    1
     3    25    27    2
     4    27    23    1
     5    23     1    1
     6     1     2   ar
     7     2    13    1
     8    13    14    1
     9    14    15    1
    10    15    16    1
    11    16    17    1
    12    17    18    1
    13    18    19    1
    14     2     3   ar
    15     3    21    1
    16    21    22    3
    17     3     4   ar
    18     4     5   ar
    19     5     6   ar
    20     6     7    2
    21     6     8   ar
    22     8    28    1
    23    28    29    1
    24    29    30   ar
    25    30    31   ar
    26    31    32   ar
    27    32    33   ar
    28    33    34   ar
    29    34    35   ar
    30    35    36   ar
    31    36    37   ar
    32    37    38   ar
    33    38    39    1
    34    39    40    3
    35     8     9   ar
    36     9    10    2
    37     9    11   ar
    38    11    12    1
    39     5     1   ar
    40    38    29   ar
    41    19    13    1
    42    11     4   ar
    43    37    32   ar
    44    17    20    1
@<TRIPOS>MOLECULE
*****
 40 44 0 0 0
SMALL
GASTEIGER

@<TRIPOS>ATOM
      1 N          63.6928   86.7142   13.3511 N.ar    1  UNL1       -0.3063
      2 C          62.9878   85.6939   12.5075 C.ar    1  UNL1        0.1240
      3 C          62.3582   86.4065   11.3474 C.ar    1  UNL1        0.1156
      4 C          62.6742   87.8673   11.4740 C.ar    1  UNL1        0.0966
      5 C          63.4990   88.0576   12.7123 C.ar    1  UNL1        0.1349
      6 C          63.9671   89.4295   13.0983 C.ar    1  UNL1        0.2819
      7 O          64.7919   89.6197   14.3367 O.2     1  UNL1       -0.2652
      8 N          63.6103   90.6110   12.2460 N.ar    1  UNL1       -0.2417
      9 C          62.7854   90.4208   11.0077 C.ar    1  UNL1        0.3342
     10 O          62.4286   91.6024   10.1553 O.2     1  UNL1       -0.2462
     11 N          62.3174   89.0490   10.6217 N.ar    1  UNL1       -0.2770
     12 C          61.4926   88.8588    9.3833 C.3     1  UNL1        0.1351
     13 N          62.9236   84.2196   12.7767 N.pl3   1  UNL1       -0.2925
     14 C          63.5295   83.3388   11.7245 C.3     1  UNL1        0.0936
     15 C          63.6233   81.8421   11.6983 C.3     1  UNL1        0.0385
     16 C          63.1346   80.8563   12.7178 C.3     1  UNL1        0.0704
     17 N          62.4312   81.1239   14.0153 N.3     1  UNL1       -0.2960
     18 C          62.0428   82.4434   14.6138 C.3     1  UNL1        0.0903
     19 C          62.2619   83.8210   14.0626 C.3     1  UNL1        0.1092
     20 H          63.0233   80.6873   14.7218 H       1  UNL1        0.1233
     21 C          61.5539   85.7700   10.2529 C.1     1  UNL1        0.1047
     22 N          60.7496   85.1335    9.1584 N.1     1  UNL1       -0.1907
     23 C          64.4574   86.4396   14.6120 C.3     1  UNL1        0.1332
     24 C          62.4466   86.3630   18.0325 C.3     1  UNL1        0.0261
     25 C          63.1612   86.8813   16.8199 C.2     1  UNL1       -0.0460
     26 C          63.2943   88.3595   16.6023 C.3     1  UNL1        0.0261
     27 C          63.7428   85.9214   15.8247 C.2     1  UNL1       -0.0102
     28 C          64.0783   91.9828   12.6320 C.3     1  UNL1        0.1600
     29 C          65.1608   92.1450   13.6577 C.ar    1  UNL1        0.0916
     30 N          64.8114   92.1926   15.1157 N.ar    1  UNL1       -0.2455
     31 C          65.8938   92.3548   16.1414 C.ar    1  UNL1        0.0985
     32 C          67.3256   92.4693   15.7091 C.ar    1  UNL1        0.0198
     33 C          68.4080   92.6315   16.7348 C.ar    1  UNL1        0.0016
     34 C          69.8398   92.7461   16.3025 C.ar    1  UNL1        0.0000
     35 C          70.1891   92.6984   14.8446 C.ar    1  UNL1        0.0000
     36 C          69.1068   92.5363   13.8189 C.ar    1  UNL1        0.0008
     37 C          67.6750   92.4217   14.2512 C.ar    1  UNL1        0.0123
     38 C          66.5925   92.2596   13.2254 C.ar    1  UNL1        0.0839
     39 C          66.9419   92.2120   11.7675 C.1     1  UNL1        0.1017
     40 N          67.2912   92.1643   10.3095 N.1     1  UNL1       -0.1908
@<TRIPOS>BOND
     1    24    25    1
     2    25    26    1
     3    25    27    2
     4    27    23    1
     5    23     1    1
     6     1     2   ar
     7     2    13    1
     8    13    14    1
     9    14    15    1
    10    15    16    1
    11    16    17    1
    12    17    18    1
    13    18    19    1
    14     2     3   ar
    15     3    21    1
    16    21    22    3
    17     3     4   ar
    18     4     5   ar
    19     5     6   ar
    20     6     7    2
    21     6     8   ar
    22     8    28    1
    23    28    29    1
    24    29    30   ar
    25    30    31   ar
    26    31    32   ar
    27    32    33   ar
    28    33    34   ar
    29    34    35   ar
    30    35    36   ar
    31    36    37   ar
    32    37    38   ar
    33    38    39    1
    34    39    40    3
    35     8     9   ar
    36     9    10    2
    37     9    11   ar
    38    11    12    1
    39     5     1   ar
    40    38    29   ar
    41    19    13    1
    42    11     4   ar
    43    37    32   ar
    44    17    20    1
