@<TRIPOS>MOLECULE
*****
 30 33 0 0 0
SMALL
GASTEIGER

@<TRIPOS>ATOM
      1 C          63.2817   84.8529   13.2112 C.ar    1  UNL1        0.2014
      2 N          62.8914   83.8755   14.2800 N.ar    1  UNL1       -0.2136
      3 C          62.7397   82.5266   13.6416 C.ar    1  UNL1        0.0999
      4 C          62.3698   81.1860   14.2037 C.ar    1  UNL1        0.0207
      5 C          62.2965   79.9892   13.3025 C.ar    1  UNL1        0.0016
      6 C          62.5932   80.1329   11.8392 C.ar    1  UNL1        0.0016
      7 C          62.9631   81.4735   11.2770 C.ar    1  UNL1        0.0188
      8 C          63.0363   82.6703   12.1783 C.ar    1  UNL1        0.0801
      9 N          63.3713   84.1080   11.9123 N.ar    1  UNL1       -0.2954
     10 C          64.0493   89.2478   13.7985 C.3     1  UNL1        0.0610
     11 C          64.5078   88.2618   14.8317 C.3     1  UNL1        0.0375
     12 C          64.2519   86.7968   14.6359 C.3     1  UNL1        0.0949
     13 N          63.5376   86.3179   13.4070 N.pl3   1  UNL1       -0.2794
     14 C          63.0792   87.3039   12.3738 C.3     1  UNL1        0.0949
     15 C          63.3350   88.7689   12.5696 C.3     1  UNL1        0.0375
     16 N          64.3052   90.7128   13.9943 N.3     1  UNL1       -0.2715
     17 C          64.3912   91.2805   15.3800 C.3     1  UNL1        0.0896
     18 C          64.4751   91.6101   12.8044 C.3     1  UNL1        0.0896
     19 C          65.8385   92.1134   12.4331 C.3     1  UNL1        0.0897
     20 C          66.1698   94.5811   11.6907 C.3     1  UNL1        0.0897
     21 N          66.2299   93.5254   12.7546 N.3     1  UNL1       -0.2691
     22 C          66.6814   93.8815   14.1400 C.3     1  UNL1        0.0897
     23 C          63.7325   84.6974   10.5811 C.3     1  UNL1        0.1354
     24 C          62.6534   85.1661    9.6506 C.ar    1  UNL1        0.0006
     25 C          62.7540   84.8811    8.1813 C.ar    1  UNL1       -0.0001
     26 C          61.6749   85.3498    7.2508 C.ar    1  UNL1        0.0294
     27 C          60.4951   86.1035    7.7896 C.ar    1  UNL1        0.1401
     28 F          59.4160   86.5721    6.8591 F       1  UNL1       -0.2042
     29 C          60.3946   86.3884    9.2588 C.ar    1  UNL1        0.0294
     30 C          61.4737   85.9198   10.1893 C.ar    1  UNL1       -0.0001
@<TRIPOS>BOND
     1    20    21    1
     2    21    22    1
     3    21    19    1
     4    19    18    1
     5    18    16    1
     6    16    17    1
     7    16    10    1
     8    10    11    1
     9    11    12    1
    10    12    13    1
    11    13     1    1
    12     1     2   ar
    13     2     3   ar
    14     3     4   ar
    15     4     5   ar
    16     5     6   ar
    17     6     7   ar
    18     7     8   ar
    19     8     9   ar
    20     9    23    1
    21    23    24    1
    22    24    25   ar
    23    25    26   ar
    24    26    27   ar
    25    27    28    1
    26    27    29   ar
    27    29    30   ar
    28    13    14    1
    29    14    15    1
    30    15    10    1
    31     9     1   ar
    32    30    24   ar
    33     8     3   ar
@<TRIPOS>MOLECULE
*****
 30 33 0 0 0
SMALL
GASTEIGER

@<TRIPOS>ATOM
      1 C          64.4003   91.0033   12.7770 C.ar    1  UNL1        0.2014
      2 N          65.5844   91.8224   12.3565 N.ar    1  UNL1       -0.2136
      3 C          66.2683   92.3189   13.5958 C.ar    1  UNL1        0.0999
      4 C          67.4860   93.1713   13.7972 C.ar    1  UNL1        0.0207
      5 C          67.9422   93.5114   15.1850 C.ar    1  UNL1        0.0016
      6 C          67.1807   92.9990   16.3715 C.ar    1  UNL1        0.0016
      7 C          65.9631   92.1466   16.1701 C.ar    1  UNL1        0.0188
      8 C          65.5068   91.8066   14.7823 C.ar    1  UNL1        0.0801
      9 N          64.3523   90.9935   14.2762 N.ar    1  UNL1       -0.2954
     10 C          61.5009   88.9378   10.0243 C.3     1  UNL1        0.0610
     11 C          61.7909   90.3989    9.8485 C.3     1  UNL1        0.0375
     12 C          62.7574   91.0874   10.7661 C.3     1  UNL1        0.0949
     13 N          63.4338   90.3148   11.8595 N.pl3   1  UNL1       -0.2794
     14 C          63.1437   88.8537   12.0353 C.3     1  UNL1        0.0949
     15 C          62.1773   88.1652   11.1177 C.3     1  UNL1        0.0375
     16 N          60.5344   88.2493    9.1068 N.3     1  UNL1       -0.2715
     17 C          59.6855   89.0561    8.1695 C.3     1  UNL1        0.0896
     18 C          60.4168   86.7541    9.1265 C.3     1  UNL1        0.0896
     19 C          60.4350   85.9833    7.8398 C.3     1  UNL1        0.0897
     20 C          61.7117   84.5301    6.1054 C.3     1  UNL1        0.0897
     21 N          61.6904   85.2916    7.3975 N.3     1  UNL1       -0.2691
     22 C          62.9243   85.3613    8.2474 C.3     1  UNL1        0.0897
     23 C          63.3295   90.2935   15.1211 C.3     1  UNL1        0.1354
     24 C          63.5110   88.8470   15.4740 C.ar    1  UNL1        0.0006
     25 C          62.9030   88.2997   16.7314 C.ar    1  UNL1       -0.0001
     26 C          63.0844   86.8532   17.0844 C.ar    1  UNL1        0.0294
     27 C          63.8740   85.9539   16.1800 C.ar    1  UNL1        0.1401
     28 F          64.0555   84.5074   16.5330 F       1  UNL1       -0.2042
     29 C          64.4820   86.5011   14.9227 C.ar    1  UNL1        0.0294
     30 C          64.3005   87.9476   14.5697 C.ar    1  UNL1       -0.0001
@<TRIPOS>BOND
     1    20    21    1
     2    21    22    1
     3    21    19    1
     4    19    18    1
     5    18    16    1
     6    16    17    1
     7    16    10    1
     8    10    11    1
     9    11    12    1
    10    12    13    1
    11    13     1    1
    12     1     2   ar
    13     2     3   ar
    14     3     4   ar
    15     4     5   ar
    16     5     6   ar
    17     6     7   ar
    18     7     8   ar
    19     8     9   ar
    20     9    23    1
    21    23    24    1
    22    24    25   ar
    23    25    26   ar
    24    26    27   ar
    25    27    28    1
    26    27    29   ar
    27    29    30   ar
    28    13    14    1
    29    14    15    1
    30    15    10    1
    31     9     1   ar
    32    30    24   ar
    33     8     3   ar
@<TRIPOS>MOLECULE
*****
 30 33 0 0 0
SMALL
GASTEIGER

@<TRIPOS>ATOM
      1 C          61.9431   89.2139   10.7628 C.ar    1  UNL1        0.2014
      2 N          61.3930   89.9687    9.5890 N.ar    1  UNL1       -0.2136
      3 C          60.5183   89.0349    8.8061 C.ar    1  UNL1        0.0999
      4 C          59.7144   89.2254    7.5541 C.ar    1  UNL1        0.0207
      5 C          58.9200   88.0840    6.9920 C.ar    1  UNL1        0.0016
      6 C          58.9295   86.7520    7.6819 C.ar    1  UNL1        0.0016
      7 C          59.7334   86.5616    8.9339 C.ar    1  UNL1        0.0188
      8 C          60.5278   87.7030    9.4959 C.ar    1  UNL1        0.0801
      9 N          61.4083   87.8137   10.7052 N.ar    1  UNL1       -0.2954
     10 C          64.7115   90.8611   13.9049 C.3     1  UNL1        0.0610
     11 C          64.2810   89.4254   13.9626 C.3     1  UNL1        0.0375
     12 C          63.3582   88.8763   12.9153 C.3     1  UNL1        0.0949
     13 N          62.8659   89.7630   11.8101 N.pl3   1  UNL1       -0.2794
     14 C          63.2963   91.1987   11.7524 C.3     1  UNL1        0.0949
     15 C          64.2191   91.7478   12.7997 C.3     1  UNL1        0.0375
     16 N          65.6343   91.4102   14.9522 N.3     1  UNL1       -0.2715
     17 C          65.0716   92.0613   16.1808 C.3     1  UNL1        0.0896
     18 C          67.1197   91.3082   14.7710 C.3     1  UNL1        0.0896
     19 C          67.8637   92.3934   14.0508 C.3     1  UNL1        0.0897
     20 C          66.4803   94.2419   12.8594 C.3     1  UNL1        0.0897
     21 N          67.2966   92.9851   12.7944 N.3     1  UNL1       -0.2691
     22 C          67.5456   92.3200   11.4733 C.3     1  UNL1        0.0897
     23 C          61.7025   86.7166   11.6850 C.3     1  UNL1        0.1354
     24 C          62.4335   85.4862   11.2360 C.ar    1  UNL1        0.0006
     25 C          62.8126   84.4328   12.2344 C.ar    1  UNL1       -0.0001
     26 C          63.5436   83.2023   11.7856 C.ar    1  UNL1        0.0294
     27 C          63.8955   83.0251   10.3382 C.ar    1  UNL1        0.1401
     28 F          64.6264   81.7946    9.8893 F       1  UNL1       -0.2042
     29 C          63.5164   84.0784    9.3398 C.ar    1  UNL1        0.0294
     30 C          62.7854   85.3089    9.7887 C.ar    1  UNL1       -0.0001
@<TRIPOS>BOND
     1    20    21    1
     2    21    22    1
     3    21    19    1
     4    19    18    1
     5    18    16    1
     6    16    17    1
     7    16    10    1
     8    10    11    1
     9    11    12    1
    10    12    13    1
    11    13     1    1
    12     1     2   ar
    13     2     3   ar
    14     3     4   ar
    15     4     5   ar
    16     5     6   ar
    17     6     7   ar
    18     7     8   ar
    19     8     9   ar
    20     9    23    1
    21    23    24    1
    22    24    25   ar
    23    25    26   ar
    24    26    27   ar
    25    27    28    1
    26    27    29   ar
    27    29    30   ar
    28    13    14    1
    29    14    15    1
    30    15    10    1
    31     9     1   ar
    32    30    24   ar
    33     8     3   ar
@<TRIPOS>MOLECULE
*****
 30 33 0 0 0
SMALL
GASTEIGER

@<TRIPOS>ATOM
      1 C          65.0795   91.2931   13.0979 C.ar    1  UNL1        0.2014
      2 N          64.9297   91.4873   14.5777 N.ar    1  UNL1       -0.2136
      3 C          66.1852   92.1281   15.0906 C.ar    1  UNL1        0.0999
      4 C          66.6051   92.5539   16.4662 C.ar    1  UNL1        0.0207
      5 C          67.9507   93.1815   16.6790 C.ar    1  UNL1        0.0016
      6 C          68.8765   93.3834   15.5162 C.ar    1  UNL1        0.0016
      7 C          68.4566   92.9576   14.1406 C.ar    1  UNL1        0.0188
      8 C          67.1110   92.3299   13.9278 C.ar    1  UNL1        0.0801
      9 N          66.4276   91.8139   12.6963 N.ar    1  UNL1       -0.2954
     10 C          62.0215   89.4685   10.3466 C.3     1  UNL1        0.0610
     11 C          62.6630   90.7773    9.9924 C.3     1  UNL1        0.0375
     12 C          63.6823   91.3855   10.9095 C.3     1  UNL1        0.0949
     13 N          64.0602   90.6849   12.1808 N.pl3   1  UNL1       -0.2794
     14 C          63.4188   89.3761   12.5351 C.3     1  UNL1        0.0949
     15 C          62.3994   88.7679   11.6180 C.3     1  UNL1        0.0375
     16 N          61.0022   88.8603    9.4295 N.3     1  UNL1       -0.2715
     17 C          59.7225   89.5882    9.1425 C.3     1  UNL1        0.0896
     18 C          61.2626   87.5242    8.7995 C.3     1  UNL1        0.0896
     19 C          60.9950   86.2661    9.5713 C.3     1  UNL1        0.0897
     20 C          63.1279   84.8674    9.0767 C.3     1  UNL1        0.0897
     21 N          62.1392   85.4262   10.0566 N.3     1  UNL1       -0.2691
     22 C          62.2947   85.1452   11.5218 C.3     1  UNL1        0.0897
     23 C          66.9932   91.8179   11.3069 C.3     1  UNL1        0.1354
     24 C          66.9730   93.0773   10.4926 C.ar    1  UNL1        0.0006
     25 C          67.8315   93.1924    9.2678 C.ar    1  UNL1       -0.0001
     26 C          67.8113   94.4518    8.4534 C.ar    1  UNL1        0.0294
     27 C          66.9327   95.5963    8.8636 C.ar    1  UNL1        0.1401
     28 F          66.9126   96.8557    8.0492 F       1  UNL1       -0.2042
     29 C          66.0742   95.4812   10.0883 C.ar    1  UNL1        0.0294
     30 C          66.0944   94.2218   10.9027 C.ar    1  UNL1       -0.0001
@<TRIPOS>BOND
     1    20    21    1
     2    21    22    1
     3    21    19    1
     4    19    18    1
     5    18    16    1
     6    16    17    1
     7    16    10    1
     8    10    11    1
     9    11    12    1
    10    12    13    1
    11    13     1    1
    12     1     2   ar
    13     2     3   ar
    14     3     4   ar
    15     4     5   ar
    16     5     6   ar
    17     6     7   ar
    18     7     8   ar
    19     8     9   ar
    20     9    23    1
    21    23    24    1
    22    24    25   ar
    23    25    26   ar
    24    26    27   ar
    25    27    28    1
    26    27    29   ar
    27    29    30   ar
    28    13    14    1
    29    14    15    1
    30    15    10    1
    31     9     1   ar
    32    30    24   ar
    33     8     3   ar
@<TRIPOS>MOLECULE
*****
 30 33 0 0 0
SMALL
GASTEIGER

@<TRIPOS>ATOM
      1 C          62.0899   88.6635   10.9356 C.ar    1  UNL1        0.2014
      2 N          60.9241   89.2041   10.1620 N.ar    1  UNL1       -0.2136
      3 C          60.4378   88.1243    9.2414 C.ar    1  UNL1        0.0999
      4 C          59.3189   88.0850    8.2432 C.ar    1  UNL1        0.0207
      5 C          59.0653   86.8376    7.4496 C.ar    1  UNL1        0.0016
      6 C          59.9307   85.6296    7.6543 C.ar    1  UNL1        0.0016
      7 C          61.0496   85.6690    8.6524 C.ar    1  UNL1        0.0188
      8 C          61.3032   86.9163    9.4460 C.ar    1  UNL1        0.0801
      9 N          62.3242   87.2496   10.4931 N.ar    1  UNL1       -0.2954
     10 C          64.4672   90.8922   14.0391 C.3     1  UNL1        0.0610
     11 C          63.8978   91.6257   12.8611 C.3     1  UNL1        0.0375
     12 C          63.1053   90.8828   11.8266 C.3     1  UNL1        0.0949
     13 N          62.8824   89.4064   11.9701 N.pl3   1  UNL1       -0.2794
     14 C          63.4518   88.6730   13.1481 C.3     1  UNL1        0.0949
     15 C          64.2443   89.4159   14.1826 C.3     1  UNL1        0.0375
     16 N          65.2597   91.6351   15.0736 N.3     1  UNL1       -0.2715
     17 C          64.6635   91.9063   16.4230 C.3     1  UNL1        0.0896
     18 C          66.6483   92.1068   14.7586 C.3     1  UNL1        0.0896
     19 C          66.8552   93.4250   14.0735 C.3     1  UNL1        0.0897
     20 C          66.2625   94.7262   11.9042 C.3     1  UNL1        0.0897
     21 N          66.8187   93.5059   12.5761 N.3     1  UNL1       -0.2691
     22 C          67.3385   92.3665   11.7505 C.3     1  UNL1        0.0897
     23 C          63.3921   86.3303   11.0073 C.3     1  UNL1        0.1354
     24 C          63.0173   85.1215   11.8124 C.ar    1  UNL1        0.0006
     25 C          62.7405   85.2544   13.2806 C.ar    1  UNL1       -0.0001
     26 C          62.3657   84.0456   14.0858 C.ar    1  UNL1        0.0294
     27 C          62.2677   82.7037   13.4226 C.ar    1  UNL1        0.1401
     28 F          61.8929   81.4949   14.2277 F       1  UNL1       -0.2042
     29 C          62.5445   82.5707   11.9544 C.ar    1  UNL1        0.0294
     30 C          62.9193   83.7795   11.1493 C.ar    1  UNL1       -0.0001
@<TRIPOS>BOND
     1    20    21    1
     2    21    22    1
     3    21    19    1
     4    19    18    1
     5    18    16    1
     6    16    17    1
     7    16    10    1
     8    10    11    1
     9    11    12    1
    10    12    13    1
    11    13     1    1
    12     1     2   ar
    13     2     3   ar
    14     3     4   ar
    15     4     5   ar
    16     5     6   ar
    17     6     7   ar
    18     7     8   ar
    19     8     9   ar
    20     9    23    1
    21    23    24    1
    22    24    25   ar
    23    25    26   ar
    24    26    27   ar
    25    27    28    1
    26    27    29   ar
    27    29    30   ar
    28    13    14    1
    29    14    15    1
    30    15    10    1
    31     9     1   ar
    32    30    24   ar
    33     8     3   ar
@<TRIPOS>MOLECULE
*****
 30 33 0 0 0
SMALL
GASTEIGER

@<TRIPOS>ATOM
      1 C          62.9636   82.7742   13.3629 C.ar    1  UNL1        0.2014
      2 N          62.5500   81.3708   13.6938 N.ar    1  UNL1       -0.2136
      3 C          62.6731   80.5452   12.4475 C.ar    1  UNL1        0.0999
      4 C          62.4026   79.0956   12.1731 C.ar    1  UNL1        0.0207
      5 C          62.6218   78.5391   10.7975 C.ar    1  UNL1        0.0016
      6 C          63.1114   79.4323    9.6963 C.ar    1  UNL1        0.0016
      7 C          63.3819   80.8819    9.9708 C.ar    1  UNL1        0.0188
      8 C          63.1628   81.4384   11.3463 C.ar    1  UNL1        0.0801
      9 N          63.3422   82.8159   11.9121 N.ar    1  UNL1       -0.2954
     10 C          63.0525   86.2490   16.2209 C.3     1  UNL1        0.0610
     11 C          61.8981   85.2914   16.2402 C.3     1  UNL1        0.0375
     12 C          61.8685   84.1331   15.2875 C.3     1  UNL1        0.0949
     13 N          62.9932   83.9324   14.3156 N.pl3   1  UNL1       -0.2794
     14 C          64.1476   84.8900   14.2964 C.3     1  UNL1        0.0949
     15 C          64.1772   86.0483   15.2490 C.3     1  UNL1        0.0375
     16 N          63.0821   87.4072   17.1736 N.3     1  UNL1       -0.2715
     17 C          62.7348   87.1994   18.6179 C.3     1  UNL1        0.0896
     18 C          63.4591   88.7733   16.6819 C.3     1  UNL1        0.0896
     19 C          62.7958   89.3408   15.4621 C.3     1  UNL1        0.0897
     20 C          63.4804   88.8344   13.0075 C.3     1  UNL1        0.0897
     21 N          63.6132   89.6678   14.2475 N.3     1  UNL1       -0.2691
     22 C          64.5634   90.8281   14.2731 C.3     1  UNL1        0.0897
     23 C          63.8171   84.0233   11.1592 C.3     1  UNL1        0.1354
     24 C          62.8240   84.9397   10.5081 C.ar    1  UNL1        0.0006
     25 C          62.7749   85.0518    9.0131 C.ar    1  UNL1       -0.0001
     26 C          61.7818   85.9682    8.3619 C.ar    1  UNL1        0.0294
     27 C          60.8378   86.7725    9.2058 C.ar    1  UNL1        0.1401
     28 F          59.8448   87.6889    8.5546 F       1  UNL1       -0.2042
     29 C          60.8870   86.6604   10.7008 C.ar    1  UNL1        0.0294
     30 C          61.8801   85.7440   11.3519 C.ar    1  UNL1       -0.0001
@<TRIPOS>BOND
     1    20    21    1
     2    21    22    1
     3    21    19    1
     4    19    18    1
     5    18    16    1
     6    16    17    1
     7    16    10    1
     8    10    11    1
     9    11    12    1
    10    12    13    1
    11    13     1    1
    12     1     2   ar
    13     2     3   ar
    14     3     4   ar
    15     4     5   ar
    16     5     6   ar
    17     6     7   ar
    18     7     8   ar
    19     8     9   ar
    20     9    23    1
    21    23    24    1
    22    24    25   ar
    23    25    26   ar
    24    26    27   ar
    25    27    28    1
    26    27    29   ar
    27    29    30   ar
    28    13    14    1
    29    14    15    1
    30    15    10    1
    31     9     1   ar
    32    30    24   ar
    33     8     3   ar
@<TRIPOS>MOLECULE
*****
 30 33 0 0 0
SMALL
GASTEIGER

@<TRIPOS>ATOM
      1 C          64.1901   91.0296   12.6960 C.ar    1  UNL1        0.2014
      2 N          65.3514   91.8829   12.2799 N.ar    1  UNL1       -0.2136
      3 C          66.0625   92.3351   13.5208 C.ar    1  UNL1        0.0999
      4 C          67.2740   93.1952   13.7264 C.ar    1  UNL1        0.0207
      5 C          67.7637   93.4814   15.1150 C.ar    1  UNL1        0.0016
      6 C          67.0419   92.9075   16.2980 C.ar    1  UNL1        0.0016
      7 C          65.8304   92.0473   16.0925 C.ar    1  UNL1        0.0188
      8 C          65.3407   91.7611   14.7039 C.ar    1  UNL1        0.0801
      9 N          64.1835   90.9543   14.1940 N.ar    1  UNL1       -0.2954
     10 C          61.2434   89.0439    9.9347 C.3     1  UNL1        0.0610
     11 C          62.1531   88.2092   10.7866 C.3     1  UNL1        0.0375
     12 C          63.1353   88.8710   11.7070 C.3     1  UNL1        0.0949
     13 N          63.2079   90.3677   11.7755 N.pl3   1  UNL1       -0.2794
     14 C          62.2983   91.2024   10.9237 C.3     1  UNL1        0.0949
     15 C          61.3160   90.5406   10.0033 C.3     1  UNL1        0.0375
     16 N          60.2612   88.3821    9.0143 N.3     1  UNL1       -0.2715
     17 C          59.2902   87.3738    9.5532 C.3     1  UNL1        0.0896
     18 C          60.2500   88.7285    7.5549 C.3     1  UNL1        0.0896
     19 C          58.9811   89.1936    6.9042 C.3     1  UNL1        0.0897
     20 C          57.7533   90.9598    5.4470 C.3     1  UNL1        0.0897
     21 N          59.0221   90.2835    5.8743 N.3     1  UNL1       -0.2691
     22 C          60.3321   90.6969    5.2717 C.3     1  UNL1        0.0897
     23 C          63.1935   90.2039   15.0348 C.3     1  UNL1        0.1354
     24 C          63.4479   88.7696   15.3923 C.ar    1  UNL1        0.0006
     25 C          64.2752   87.9062   14.4867 C.ar    1  UNL1       -0.0001
     26 C          64.5296   86.4718   14.8441 C.ar    1  UNL1        0.0294
     27 C          63.9567   85.9007   16.1074 C.ar    1  UNL1        0.1401
     28 F          64.2111   84.4664   16.4649 F       1  UNL1       -0.2042
     29 C          63.1294   86.7641   17.0130 C.ar    1  UNL1        0.0294
     30 C          62.8749   88.1984   16.6555 C.ar    1  UNL1       -0.0001
@<TRIPOS>BOND
     1    20    21    1
     2    21    22    1
     3    21    19    1
     4    19    18    1
     5    18    16    1
     6    16    17    1
     7    16    10    1
     8    10    11    1
     9    11    12    1
    10    12    13    1
    11    13     1    1
    12     1     2   ar
    13     2     3   ar
    14     3     4   ar
    15     4     5   ar
    16     5     6   ar
    17     6     7   ar
    18     7     8   ar
    19     8     9   ar
    20     9    23    1
    21    23    24    1
    22    24    25   ar
    23    25    26   ar
    24    26    27   ar
    25    27    28    1
    26    27    29   ar
    27    29    30   ar
    28    13    14    1
    29    14    15    1
    30    15    10    1
    31     9     1   ar
    32    30    24   ar
    33     8     3   ar
@<TRIPOS>MOLECULE
*****
 30 33 0 0 0
SMALL
GASTEIGER

@<TRIPOS>ATOM
      1 C          62.0486   88.7757   10.6612 C.ar    1  UNL1        0.2014
      2 N          60.8384   89.3013    9.9476 N.ar    1  UNL1       -0.2136
      3 C          60.3132   88.2114    9.0609 C.ar    1  UNL1        0.0999
      4 C          59.1431   88.1560    8.1242 C.ar    1  UNL1        0.0207
      5 C          58.8585   86.9013    7.3530 C.ar    1  UNL1        0.0016
      6 C          59.7441   85.7020    7.5185 C.ar    1  UNL1        0.0016
      7 C          60.9143   85.7574    8.4553 C.ar    1  UNL1        0.0188
      8 C          61.1989   87.0121    9.2265 C.ar    1  UNL1        0.0801
      9 N          62.2714   87.3609   10.2155 N.ar    1  UNL1       -0.2954
     10 C          64.5684   91.0449   13.6195 C.3     1  UNL1        0.0610
     11 C          64.1432   89.6381   13.9198 C.3     1  UNL1        0.0375
     12 C          63.3033   88.8817   12.9337 C.3     1  UNL1        0.0949
     13 N          62.8885   89.5321   11.6473 N.pl3   1  UNL1       -0.2794
     14 C          63.3137   90.9389   11.3469 C.3     1  UNL1        0.0949
     15 C          64.1536   91.6952   12.3330 C.3     1  UNL1        0.0375
     16 N          65.4083   91.8013   14.6056 N.3     1  UNL1       -0.2715
     17 C          64.9456   91.9528   16.0243 C.3     1  UNL1        0.0896
     18 C          66.7109   92.4062   14.1729 C.3     1  UNL1        0.0896
     19 C          67.2533   93.6087   14.8869 C.3     1  UNL1        0.0897
     20 C          68.8201   92.1322   16.3415 C.3     1  UNL1        0.0897
     21 N          68.4504   93.4735   15.7808 N.3     1  UNL1       -0.2691
     22 C          69.2776   94.6795   16.1139 C.3     1  UNL1        0.0897
     23 C          63.3732   86.4540   10.6776 C.3     1  UNL1        0.1354
     24 C          63.0517   85.2430   11.5021 C.ar    1  UNL1        0.0006
     25 C          63.0527   83.8829   10.8692 C.ar    1  UNL1       -0.0001
     26 C          62.7312   82.6718   11.6936 C.ar    1  UNL1        0.0294
     27 C          62.4087   82.8206   13.1510 C.ar    1  UNL1        0.1401
     28 F          62.0872   81.6094   13.9754 F       1  UNL1       -0.2042
     29 C          62.4077   84.1805   13.7838 C.ar    1  UNL1        0.0294
     30 C          62.7292   85.3917   12.9594 C.ar    1  UNL1       -0.0001
@<TRIPOS>BOND
     1    20    21    1
     2    21    22    1
     3    21    19    1
     4    19    18    1
     5    18    16    1
     6    16    17    1
     7    16    10    1
     8    10    11    1
     9    11    12    1
    10    12    13    1
    11    13     1    1
    12     1     2   ar
    13     2     3   ar
    14     3     4   ar
    15     4     5   ar
    16     5     6   ar
    17     6     7   ar
    18     7     8   ar
    19     8     9   ar
    20     9    23    1
    21    23    24    1
    22    24    25   ar
    23    25    26   ar
    24    26    27   ar
    25    27    28    1
    26    27    29   ar
    27    29    30   ar
    28    13    14    1
    29    14    15    1
    30    15    10    1
    31     9     1   ar
    32    30    24   ar
    33     8     3   ar
@<TRIPOS>MOLECULE
*****
 30 33 0 0 0
SMALL
GASTEIGER

@<TRIPOS>ATOM
      1 C          62.2976   89.4865   10.5835 C.ar    1  UNL1        0.2014
      2 N          61.5730   90.1187    9.4324 N.ar    1  UNL1       -0.2136
      3 C          60.6364   89.0979    8.8572 C.ar    1  UNL1        0.0999
      4 C          59.6696   89.1554    7.7118 C.ar    1  UNL1        0.0207
      5 C          58.8487   87.9497    7.3621 C.ar    1  UNL1        0.0016
      6 C          58.9946   86.6865    8.1578 C.ar    1  UNL1        0.0016
      7 C          59.9613   86.6290    9.3032 C.ar    1  UNL1        0.0188
      8 C          60.7822   87.8347    9.6529 C.ar    1  UNL1        0.0801
      9 N          61.8089   88.0749   10.7198 N.ar    1  UNL1       -0.2954
     10 C          65.3940   91.4753   13.1732 C.3     1  UNL1        0.0610
     11 C          64.6832   90.2484   13.6622 C.3     1  UNL1        0.0375
     12 C          63.6510   89.5854   12.7990 C.3     1  UNL1        0.0949
     13 N          63.3298   90.1495   11.4467 N.pl3   1  UNL1       -0.2794
     14 C          64.0406   91.3764   10.9577 C.3     1  UNL1        0.0949
     15 C          65.0728   92.0394   11.8210 C.3     1  UNL1        0.0375
     16 N          66.4262   92.1383   14.0365 N.3     1  UNL1       -0.2715
     17 C          67.8848   91.9263   13.7585 C.3     1  UNL1        0.0896
     18 C          65.9997   93.0133   15.1777 C.3     1  UNL1        0.0896
     19 C          65.5875   92.3972   16.4818 C.3     1  UNL1        0.0897
     20 C          63.2636   93.3210   17.1861 C.3     1  UNL1        0.0897
     21 N          64.1346   92.1700   16.7780 N.3     1  UNL1       -0.2691
     22 C          63.5529   90.7920   16.6661 C.3     1  UNL1        0.0897
     23 C          62.2666   87.0784   11.7433 C.3     1  UNL1        0.1354
     24 C          62.6586   85.6941   11.3194 C.ar    1  UNL1        0.0006
     25 C          62.6493   84.5734   12.3165 C.ar    1  UNL1       -0.0001
     26 C          63.0413   83.1890   11.8927 C.ar    1  UNL1        0.0294
     27 C          63.4427   82.9252   10.4716 C.ar    1  UNL1        0.1401
     28 F          63.8347   81.5407   10.0478 F       1  UNL1       -0.2042
     29 C          63.4520   84.0457    9.4745 C.ar    1  UNL1        0.0294
     30 C          63.0600   85.4301    9.8984 C.ar    1  UNL1       -0.0001
@<TRIPOS>BOND
     1    20    21    1
     2    21    22    1
     3    21    19    1
     4    19    18    1
     5    18    16    1
     6    16    17    1
     7    16    10    1
     8    10    11    1
     9    11    12    1
    10    12    13    1
    11    13     1    1
    12     1     2   ar
    13     2     3   ar
    14     3     4   ar
    15     4     5   ar
    16     5     6   ar
    17     6     7   ar
    18     7     8   ar
    19     8     9   ar
    20     9    23    1
    21    23    24    1
    22    24    25   ar
    23    25    26   ar
    24    26    27   ar
    25    27    28    1
    26    27    29   ar
    27    29    30   ar
    28    13    14    1
    29    14    15    1
    30    15    10    1
    31     9     1   ar
    32    30    24   ar
    33     8     3   ar
