@<TRIPOS>MOLECULE
*****
 25 28 0 0 0
SMALL
GASTEIGER

@<TRIPOS>ATOM
      1 O          61.0768   88.3389    8.7946 O.3     1  UNL1       -0.4753
      2 C          61.6079   87.1120    9.4746 C.ar    1  UNL1        0.1386
      3 C          62.4967   86.1643    8.7248 C.ar    1  UNL1        0.0370
      4 C          63.0279   84.9373    9.4048 C.ar    1  UNL1        0.0063
      5 C          62.6703   84.6580   10.8346 C.ar    1  UNL1        0.0393
      6 C          61.7817   85.6057   11.5843 C.ar    1  UNL1        0.0063
      7 C          61.2505   86.8327   10.9043 C.ar    1  UNL1        0.0370
      8 C          63.2015   83.4311   11.5146 C.ar    1  UNL1        0.2033
      9 N          64.6257   82.9605   11.4979 N.ar    1  UNL1       -0.0560
     10 O          64.7062   81.6978   12.3037 O.2     1  UNL1       -0.3370
     11 C          63.3317   81.3880   12.8183 C.ar    1  UNL1        0.2371
     12 C          62.9535   80.2133   13.6709 C.3     1  UNL1        0.0978
     13 N          62.4017   82.4592   12.3306 N.ar    1  UNL1       -0.1907
     14 C          60.7737   89.5694    9.5971 C.3     1  UNL1        0.2087
     15 N          63.3315   91.0346   11.7006 N.pl3   1  UNL1       -0.2915
     16 C          62.9604   91.1418   10.2512 C.3     1  UNL1        0.0976
     17 C          61.8332   90.1763   10.4684 C.3     1  UNL1        0.0832
     18 C          62.2042   90.0690   11.9178 C.3     1  UNL1        0.0976
     19 C          67.5693   93.4622   15.1860 C.3     1  UNL1        0.0540
     20 C          66.5098   92.8553   14.3146 C.ar    1  UNL1        0.0810
     21 C          66.6011   92.9839   12.8230 C.ar    1  UNL1        0.0194
     22 C          65.5416   92.3770   11.9516 C.ar    1  UNL1        0.0374
     23 C          64.3909   91.6415   12.5720 C.ar    1  UNL1        0.1534
     24 N          64.2997   91.5129   14.0636 N.ar    1  UNL1       -0.1332
     25 N          65.3592   92.1198   14.9350 N.ar    1  UNL1       -0.1512
@<TRIPOS>BOND
     1    19    20    1
     2    20    21   ar
     3    21    22   ar
     4    22    23   ar
     5    23    15    1
     6    15    16    1
     7    16    17    1
     8    17    14    1
     9    14     1    1
    10     1     2    1
    11     2     3   ar
    12     3     4   ar
    13     4     5   ar
    14     5     8    1
    15     8     9   ar
    16     9    10   ar
    17    10    11   ar
    18    11    12    1
    19    11    13   ar
    20     5     6   ar
    21     6     7   ar
    22    17    18    1
    23    23    24   ar
    24    24    25   ar
    25    25    20   ar
    26    18    15    1
    27     7     2   ar
    28    13     8   ar
@<TRIPOS>MOLECULE
*****
 25 28 0 0 0
SMALL
GASTEIGER

@<TRIPOS>ATOM
      1 O          63.5830   88.7487   14.8283 O.3     1  UNL1       -0.4753
      2 C          64.1813   89.8700   14.0315 C.ar    1  UNL1        0.1386
      3 C          63.5680   90.2702   12.7224 C.ar    1  UNL1        0.0370
      4 C          64.1662   91.3915   11.9256 C.ar    1  UNL1        0.0063
      5 C          65.3778   92.1124   12.4378 C.ar    1  UNL1        0.0393
      6 C          65.9911   91.7121   13.7469 C.ar    1  UNL1        0.0063
      7 C          65.3928   90.5909   14.5437 C.ar    1  UNL1        0.0370
      8 C          65.9761   93.2336   11.6410 C.ar    1  UNL1        0.2033
      9 N          66.3887   94.5730   12.1756 N.ar    1  UNL1       -0.0560
     10 O          66.9344   95.3795   11.0347 O.2     1  UNL1       -0.3370
     11 C          66.8591   94.5386    9.7949 C.ar    1  UNL1        0.2371
     12 C          67.2988   94.9513    8.4214 C.3     1  UNL1        0.0978
     13 N          66.2668   93.2123   10.1695 N.ar    1  UNL1       -0.1907
     14 C          64.3882   87.5144   15.1079 C.3     1  UNL1        0.2087
     15 N          63.8359   84.5125   13.1592 N.pl3   1  UNL1       -0.2915
     16 C          63.3099   85.9167   13.1163 C.3     1  UNL1        0.0976
     17 C          64.1594   86.2710   14.3007 C.3     1  UNL1        0.0832
     18 C          64.6854   84.8669   14.3437 C.3     1  UNL1        0.0976
     19 C          62.9209   79.5387    9.9305 C.3     1  UNL1        0.0540
     20 C          63.1496   80.7822   10.7377 C.ar    1  UNL1        0.0810
     21 C          63.9039   81.9342   10.1429 C.ar    1  UNL1        0.0194
     22 C          64.1327   83.1777   10.9501 C.ar    1  UNL1        0.0374
     23 C          63.6071   83.2691   12.3520 C.ar    1  UNL1        0.1534
     24 N          62.8528   82.1170   12.9468 N.ar    1  UNL1       -0.1332
     25 N          62.6241   80.8736   12.1396 N.ar    1  UNL1       -0.1512
@<TRIPOS>BOND
     1    19    20    1
     2    20    21   ar
     3    21    22   ar
     4    22    23   ar
     5    23    15    1
     6    15    16    1
     7    16    17    1
     8    17    14    1
     9    14     1    1
    10     1     2    1
    11     2     3   ar
    12     3     4   ar
    13     4     5   ar
    14     5     8    1
    15     8     9   ar
    16     9    10   ar
    17    10    11   ar
    18    11    12    1
    19    11    13   ar
    20     5     6   ar
    21     6     7   ar
    22    17    18    1
    23    23    24   ar
    24    24    25   ar
    25    25    20   ar
    26    18    15    1
    27     7     2   ar
    28    13     8   ar
@<TRIPOS>MOLECULE
*****
 25 28 0 0 0
SMALL
GASTEIGER

@<TRIPOS>ATOM
      1 O          63.4863   86.1760   17.1556 O.3     1  UNL1       -0.4753
      2 C          63.5586   85.3297   15.9192 C.ar    1  UNL1        0.1386
      3 C          62.3924   84.4705   15.5293 C.ar    1  UNL1        0.0370
      4 C          62.4647   83.6242   14.2929 C.ar    1  UNL1        0.0063
      5 C          63.7031   83.6371   13.4465 C.ar    1  UNL1        0.0393
      6 C          64.8691   84.4962   13.8365 C.ar    1  UNL1        0.0063
      7 C          64.7969   85.3425   15.0729 C.ar    1  UNL1        0.0370
      8 C          63.7753   82.7907   12.2102 C.ar    1  UNL1        0.2033
      9 N          64.6704   83.0283   11.0302 N.ar    1  UNL1       -0.0560
     10 O          64.4134   81.9426   10.0275 O.2     1  UNL1       -0.3370
     11 C          63.3596   81.0341   10.5878 C.ar    1  UNL1        0.2371
     12 C          62.7986   79.8154    9.9170 C.3     1  UNL1        0.0978
     13 N          62.9651   81.5582   11.9368 N.ar    1  UNL1       -0.1907
     14 C          62.8109   87.5145   17.1098 C.3     1  UNL1        0.2087
     15 N          64.1603   90.1534   15.0292 N.pl3   1  UNL1       -0.2915
     16 C          64.1048   88.6569   14.9413 C.3     1  UNL1        0.0976
     17 C          63.3698   88.6076   16.2480 C.3     1  UNL1        0.0832
     18 C          63.4253   90.1039   16.3358 C.3     1  UNL1        0.0976
     19 C          66.3961   94.5257   11.5818 C.3     1  UNL1        0.0540
     20 C          65.8372   93.4326   12.4436 C.ar    1  UNL1        0.0810
     21 C          64.9912   92.3548   11.8333 C.ar    1  UNL1        0.0194
     22 C          64.4322   91.2617   12.6951 C.ar    1  UNL1        0.0374
     23 C          64.7193   91.2465   14.1673 C.ar    1  UNL1        0.1534
     24 N          65.5652   92.3243   14.7777 N.ar    1  UNL1       -0.1332
     25 N          66.1242   93.4174   13.9158 N.ar    1  UNL1       -0.1512
@<TRIPOS>BOND
     1    19    20    1
     2    20    21   ar
     3    21    22   ar
     4    22    23   ar
     5    23    15    1
     6    15    16    1
     7    16    17    1
     8    17    14    1
     9    14     1    1
    10     1     2    1
    11     2     3   ar
    12     3     4   ar
    13     4     5   ar
    14     5     8    1
    15     8     9   ar
    16     9    10   ar
    17    10    11   ar
    18    11    12    1
    19    11    13   ar
    20     5     6   ar
    21     6     7   ar
    22    17    18    1
    23    23    24   ar
    24    24    25   ar
    25    25    20   ar
    26    18    15    1
    27     7     2   ar
    28    13     8   ar
@<TRIPOS>MOLECULE
*****
 25 28 0 0 0
SMALL
GASTEIGER

@<TRIPOS>ATOM
      1 O          60.9791   90.4088   10.0603 O.3     1  UNL1       -0.4753
      2 C          62.2219   90.7768   10.8152 C.ar    1  UNL1        0.1386
      3 C          63.3010   91.5715   10.1414 C.ar    1  UNL1        0.0370
      4 C          64.5439   91.9395   10.8963 C.ar    1  UNL1        0.0063
      5 C          64.7076   91.5127   12.3251 C.ar    1  UNL1        0.0393
      6 C          63.6285   90.7180   12.9988 C.ar    1  UNL1        0.0063
      7 C          62.3857   90.3500   12.2439 C.ar    1  UNL1        0.0370
      8 C          65.9505   91.8807   13.0800 C.ar    1  UNL1        0.2033
      9 N          67.2039   92.4545   12.4886 N.ar    1  UNL1       -0.0560
     10 O          68.1862   92.6680   13.6020 O.2     1  UNL1       -0.3370
     11 C          67.5399   92.2261   14.8814 C.ar    1  UNL1        0.2371
     12 C          68.1655   92.2640   16.2442 C.3     1  UNL1        0.0978
     13 N          66.1581   91.7395   14.5589 N.ar    1  UNL1       -0.1907
     14 C          60.9035   89.0992    9.3328 C.3     1  UNL1        0.2087
     15 N          61.9747   86.0529   10.9717 N.pl3   1  UNL1       -0.2915
     16 C          62.4376   86.8342    9.7778 C.3     1  UNL1        0.0976
     17 C          61.3472   87.8374   10.0117 C.3     1  UNL1        0.0832
     18 C          60.8844   87.0562   11.2056 C.3     1  UNL1        0.0976
     19 C          63.7496   81.0055   13.6873 C.3     1  UNL1        0.0540
     20 C          63.3059   82.2674   13.0084 C.ar    1  UNL1        0.0810
     21 C          63.2993   82.3509   11.5107 C.ar    1  UNL1        0.0194
     22 C          62.8556   83.6127   10.8319 C.ar    1  UNL1        0.0374
     23 C          62.4185   84.7911   11.6506 C.ar    1  UNL1        0.1534
     24 N          62.4250   84.7076   13.1482 N.ar    1  UNL1       -0.1332
     25 N          62.8688   83.4457   13.8271 N.ar    1  UNL1       -0.1512
@<TRIPOS>BOND
     1    19    20    1
     2    20    21   ar
     3    21    22   ar
     4    22    23   ar
     5    23    15    1
     6    15    16    1
     7    16    17    1
     8    17    14    1
     9    14     1    1
    10     1     2    1
    11     2     3   ar
    12     3     4   ar
    13     4     5   ar
    14     5     8    1
    15     8     9   ar
    16     9    10   ar
    17    10    11   ar
    18    11    12    1
    19    11    13   ar
    20     5     6   ar
    21     6     7   ar
    22    17    18    1
    23    23    24   ar
    24    24    25   ar
    25    25    20   ar
    26    18    15    1
    27     7     2   ar
    28    13     8   ar
@<TRIPOS>MOLECULE
*****
 25 28 0 0 0
SMALL
GASTEIGER

@<TRIPOS>ATOM
      1 O          63.5714   87.4086   17.1652 O.3     1  UNL1       -0.4753
      2 C          63.4433   86.1905   16.2993 C.ar    1  UNL1        0.1386
      3 C          62.2940   85.2470   16.4974 C.ar    1  UNL1        0.0370
      4 C          62.1658   84.0289   15.6316 C.ar    1  UNL1        0.0063
      5 C          63.1870   83.7542   14.5676 C.ar    1  UNL1        0.0393
      6 C          64.3361   84.6976   14.3696 C.ar    1  UNL1        0.0063
      7 C          64.4643   85.9158   15.2354 C.ar    1  UNL1        0.0370
      8 C          63.0588   82.5361   13.7018 C.ar    1  UNL1        0.2033
      9 N          62.7409   81.1483   14.1738 N.ar    1  UNL1       -0.0560
     10 O          62.7117   80.2463   12.9756 O.2     1  UNL1       -0.3370
     11 C          63.0116   81.0767   11.7630 C.ar    1  UNL1        0.2371
     12 C          63.0842   80.5794   10.3497 C.3     1  UNL1        0.0978
     13 N          63.2261   82.4919   12.2117 N.ar    1  UNL1       -0.1907
     14 C          62.9576   88.7062   16.7299 C.3     1  UNL1        0.2087
     15 N          64.5517   90.6886   14.1525 N.pl3   1  UNL1       -0.2915
     16 C          64.1856   89.2418   14.3036 C.3     1  UNL1        0.0976
     17 C          63.6179   89.5273   15.6623 C.3     1  UNL1        0.0832
     18 C          63.9840   90.9741   15.5113 C.3     1  UNL1        0.0976
     19 C          67.1929   93.9733    9.8823 C.3     1  UNL1        0.0540
     20 C          66.5326   93.1521   10.9499 C.ar    1  UNL1        0.0810
     21 C          65.1486   92.6153   10.7347 C.ar    1  UNL1        0.0194
     22 C          64.4883   91.7942   11.8023 C.ar    1  UNL1        0.0374
     23 C          65.2120   91.5098   13.0850 C.ar    1  UNL1        0.1534
     24 N          66.5960   92.0466   13.3001 N.ar    1  UNL1       -0.1332
     25 N          67.2563   92.8678   12.2325 N.ar    1  UNL1       -0.1512
@<TRIPOS>BOND
     1    19    20    1
     2    20    21   ar
     3    21    22   ar
     4    22    23   ar
     5    23    15    1
     6    15    16    1
     7    16    17    1
     8    17    14    1
     9    14     1    1
    10     1     2    1
    11     2     3   ar
    12     3     4   ar
    13     4     5   ar
    14     5     8    1
    15     8     9   ar
    16     9    10   ar
    17    10    11   ar
    18    11    12    1
    19    11    13   ar
    20     5     6   ar
    21     6     7   ar
    22    17    18    1
    23    23    24   ar
    24    24    25   ar
    25    25    20   ar
    26    18    15    1
    27     7     2   ar
    28    13     8   ar
@<TRIPOS>MOLECULE
*****
 25 28 0 0 0
SMALL
GASTEIGER

@<TRIPOS>ATOM
      1 O          62.1272   89.0738    9.8646 O.3     1  UNL1       -0.4753
      2 C          62.2886   87.7760   10.5994 C.ar    1  UNL1        0.1386
      3 C          62.9264   87.7571   11.9569 C.ar    1  UNL1        0.0370
      4 C          63.0878   86.4594   12.6917 C.ar    1  UNL1        0.0063
      5 C          62.6114   85.1806   12.0689 C.ar    1  UNL1        0.0393
      6 C          61.9736   85.1996   10.7114 C.ar    1  UNL1        0.0063
      7 C          61.8122   86.4973    9.9767 C.ar    1  UNL1        0.0370
      8 C          62.7728   83.8829   12.8037 C.ar    1  UNL1        0.2033
      9 N          63.3913   83.7081   14.1590 N.ar    1  UNL1       -0.0560
     10 O          63.3448   82.2493   14.5051 O.2     1  UNL1       -0.3370
     11 C          62.6976   81.5225   13.3637 C.ar    1  UNL1        0.2371
     12 C          62.4477   80.0454   13.2872 C.3     1  UNL1        0.0978
     13 N          62.3440   82.5321   12.3121 N.ar    1  UNL1       -0.1907
     14 C          61.9300   90.3491   10.6292 C.3     1  UNL1        0.2087
     15 N          64.6123   91.6676   12.6738 N.pl3   1  UNL1       -0.2915
     16 C          64.3562   91.5614   11.1996 C.3     1  UNL1        0.0976
     17 C          63.0411   90.8952   11.4761 C.3     1  UNL1        0.0832
     18 C          63.2970   91.0014   12.9503 C.3     1  UNL1        0.0976
     19 C          69.0565   93.8522   16.0615 C.3     1  UNL1        0.0540
     20 C          67.9455   93.3060   15.2146 C.ar    1  UNL1        0.0810
     21 C          67.6516   91.8351   15.2203 C.ar    1  UNL1        0.0194
     22 C          66.5406   91.2890   14.3734 C.ar    1  UNL1        0.0374
     23 C          65.7234   92.2137   13.5208 C.ar    1  UNL1        0.1534
     24 N          66.0172   93.6846   13.5151 N.ar    1  UNL1       -0.1332
     25 N          67.1283   94.2308   14.3620 N.ar    1  UNL1       -0.1512
@<TRIPOS>BOND
     1    19    20    1
     2    20    21   ar
     3    21    22   ar
     4    22    23   ar
     5    23    15    1
     6    15    16    1
     7    16    17    1
     8    17    14    1
     9    14     1    1
    10     1     2    1
    11     2     3   ar
    12     3     4   ar
    13     4     5   ar
    14     5     8    1
    15     8     9   ar
    16     9    10   ar
    17    10    11   ar
    18    11    12    1
    19    11    13   ar
    20     5     6   ar
    21     6     7   ar
    22    17    18    1
    23    23    24   ar
    24    24    25   ar
    25    25    20   ar
    26    18    15    1
    27     7     2   ar
    28    13     8   ar
@<TRIPOS>MOLECULE
*****
 25 28 0 0 0
SMALL
GASTEIGER

@<TRIPOS>ATOM
      1 O          64.6305   89.1138   14.7074 O.3     1  UNL1       -0.4753
      2 C          64.2840   87.7305   14.2421 C.ar    1  UNL1        0.1386
      3 C          64.7380   86.5381   15.0309 C.ar    1  UNL1        0.0370
      4 C          64.3916   85.1549   14.5655 C.ar    1  UNL1        0.0063
      5 C          63.5912   84.9640   13.3113 C.ar    1  UNL1        0.0393
      6 C          63.1372   86.1563   12.5225 C.ar    1  UNL1        0.0063
      7 C          63.4837   87.5396   12.9879 C.ar    1  UNL1        0.0370
      8 C          63.2447   83.5807   12.8459 C.ar    1  UNL1        0.2033
      9 N          63.1946   83.1168   11.4204 N.ar    1  UNL1       -0.0560
     10 O          62.8065   81.6679   11.4178 O.2     1  UNL1       -0.3370
     11 C          62.6168   81.2363   12.8418 C.ar    1  UNL1        0.2371
     12 C          62.2250   79.8636   13.3023 C.3     1  UNL1        0.0978
     13 N          62.8876   82.4185   13.7245 N.ar    1  UNL1       -0.1907
     14 C          63.8389   90.2900   14.2178 C.3     1  UNL1        0.2087
     15 N          65.3461   92.6632   11.9352 N.pl3   1  UNL1       -0.2915
     16 C          64.2234   91.6722   11.8464 C.3     1  UNL1        0.0976
     17 C          64.4632   91.2730   13.2723 C.3     1  UNL1        0.0832
     18 C          65.5858   92.2639   13.3611 C.3     1  UNL1        0.0976
     19 C          67.8433   96.5952    8.1532 C.3     1  UNL1        0.0540
     20 C          67.2190   95.6122    9.0987 C.ar    1  UNL1        0.0810
     21 C          67.6068   94.1644    9.0395 C.ar    1  UNL1        0.0194
     22 C          66.9825   93.1814    9.9850 C.ar    1  UNL1        0.0374
     23 C          65.9704   93.6462   10.9897 C.ar    1  UNL1        0.1534
     24 N          65.5826   95.0939   11.0489 N.ar    1  UNL1       -0.1332
     25 N          66.2069   96.0769   10.1035 N.ar    1  UNL1       -0.1512
@<TRIPOS>BOND
     1    19    20    1
     2    20    21   ar
     3    21    22   ar
     4    22    23   ar
     5    23    15    1
     6    15    16    1
     7    16    17    1
     8    17    14    1
     9    14     1    1
    10     1     2    1
    11     2     3   ar
    12     3     4   ar
    13     4     5   ar
    14     5     8    1
    15     8     9   ar
    16     9    10   ar
    17    10    11   ar
    18    11    12    1
    19    11    13   ar
    20     5     6   ar
    21     6     7   ar
    22    17    18    1
    23    23    24   ar
    24    24    25   ar
    25    25    20   ar
    26    18    15    1
    27     7     2   ar
    28    13     8   ar
@<TRIPOS>MOLECULE
*****
 25 28 0 0 0
SMALL
GASTEIGER

@<TRIPOS>ATOM
      1 O          63.7648   88.6430   13.7832 O.3     1  UNL1       -0.4753
      2 C          63.2022   88.0163   12.5419 C.ar    1  UNL1        0.1386
      3 C          62.7079   88.8833   11.4220 C.ar    1  UNL1        0.0370
      4 C          62.1453   88.2566   10.1807 C.ar    1  UNL1        0.0063
      5 C          62.0771   86.7631   10.0593 C.ar    1  UNL1        0.0393
      6 C          62.5714   85.8962   11.1792 C.ar    1  UNL1        0.0063
      7 C          63.1340   86.5229   12.4205 C.ar    1  UNL1        0.0370
      8 C          61.5146   86.1364    8.8180 C.ar    1  UNL1        0.2033
      9 N          60.0833   86.1927    8.3728 N.ar    1  UNL1       -0.0560
     10 O          59.9686   85.4345    7.0836 O.2     1  UNL1       -0.3370
     11 C          61.3291   84.9096    6.7320 C.ar    1  UNL1        0.2371
     12 C          61.6737   84.0941    5.5211 C.3     1  UNL1        0.0978
     13 N          62.2846   85.3434    7.8039 N.ar    1  UNL1       -0.1907
     14 C          63.5877   90.1122   14.0281 C.3     1  UNL1        0.2087
     15 N          65.2141   92.5174   11.8639 N.pl3   1  UNL1       -0.2915
     16 C          63.9779   91.6729   11.7711 C.3     1  UNL1        0.0976
     17 C          64.2614   91.1085   13.1316 C.3     1  UNL1        0.0832
     18 C          65.4976   91.9529   13.2245 C.3     1  UNL1        0.0976
     19 C          67.9089   96.5025    8.2782 C.3     1  UNL1        0.0540
     20 C          67.2352   95.5063    9.1746 C.ar    1  UNL1        0.0810
     21 C          67.7105   94.0839    9.2061 C.ar    1  UNL1        0.0194
     22 C          67.0369   93.0877   10.1025 C.ar    1  UNL1        0.0374
     23 C          65.8878   93.5137   10.9675 C.ar    1  UNL1        0.1534
     24 N          65.4125   94.9360   10.9360 N.ar    1  UNL1       -0.1332
     25 N          66.0861   95.9323   10.0396 N.ar    1  UNL1       -0.1512
@<TRIPOS>BOND
     1    19    20    1
     2    20    21   ar
     3    21    22   ar
     4    22    23   ar
     5    23    15    1
     6    15    16    1
     7    16    17    1
     8    17    14    1
     9    14     1    1
    10     1     2    1
    11     2     3   ar
    12     3     4   ar
    13     4     5   ar
    14     5     8    1
    15     8     9   ar
    16     9    10   ar
    17    10    11   ar
    18    11    12    1
    19    11    13   ar
    20     5     6   ar
    21     6     7   ar
    22    17    18    1
    23    23    24   ar
    24    24    25   ar
    25    25    20   ar
    26    18    15    1
    27     7     2   ar
    28    13     8   ar
@<TRIPOS>MOLECULE
*****
 25 28 0 0 0
SMALL
GASTEIGER

@<TRIPOS>ATOM
      1 O          64.1970   88.9746   15.8060 O.3     1  UNL1       -0.4753
      2 C          63.8816   87.5339   15.5325 C.ar    1  UNL1        0.1386
      3 C          64.2151   86.9332   14.1991 C.ar    1  UNL1        0.0370
      4 C          63.8997   85.4924   13.9256 C.ar    1  UNL1        0.0063
      5 C          63.2508   84.6524   14.9855 C.ar    1  UNL1        0.0393
      6 C          62.9174   85.2531   16.3189 C.ar    1  UNL1        0.0063
      7 C          63.2328   86.6939   16.5924 C.ar    1  UNL1        0.0370
      8 C          62.9354   83.2117   14.7121 C.ar    1  UNL1        0.2033
      9 N          63.9354   82.1050   14.5529 N.ar    1  UNL1       -0.0560
     10 O          63.1826   80.8340   14.2922 O.2     1  UNL1       -0.3370
     11 C          61.7174   81.1551   14.2902 C.ar    1  UNL1        0.2371
     12 C          60.6010   80.1784   14.0678 C.3     1  UNL1        0.0978
     13 N          61.5645   82.6246   14.5497 N.ar    1  UNL1       -0.1907
     14 C          63.4449   90.0563   15.0889 C.3     1  UNL1        0.2087
     15 N          65.1238   92.0881   12.6056 N.pl3   1  UNL1       -0.2915
     16 C          63.8161   91.3559   12.6692 C.3     1  UNL1        0.0976
     17 C          64.1403   90.8979   14.0603 C.3     1  UNL1        0.0832
     18 C          65.4480   91.6301   13.9967 C.3     1  UNL1        0.0976
     19 C          67.9054   95.4547    8.4911 C.3     1  UNL1        0.0540
     20 C          67.2100   94.6131    9.5197 C.ar    1  UNL1        0.0810
     21 C          66.3022   95.2561   10.5259 C.ar    1  UNL1        0.0194
     22 C          65.6068   94.4145   11.5545 C.ar    1  UNL1        0.0374
     23 C          65.8192   92.9298   11.5770 C.ar    1  UNL1        0.1534
     24 N          66.7270   92.2867   10.5709 N.ar    1  UNL1       -0.1332
     25 N          67.4224   93.1284    9.5422 N.ar    1  UNL1       -0.1512
@<TRIPOS>BOND
     1    19    20    1
     2    20    21   ar
     3    21    22   ar
     4    22    23   ar
     5    23    15    1
     6    15    16    1
     7    16    17    1
     8    17    14    1
     9    14     1    1
    10     1     2    1
    11     2     3   ar
    12     3     4   ar
    13     4     5   ar
    14     5     8    1
    15     8     9   ar
    16     9    10   ar
    17    10    11   ar
    18    11    12    1
    19    11    13   ar
    20     5     6   ar
    21     6     7   ar
    22    17    18    1
    23    23    24   ar
    24    24    25   ar
    25    25    20   ar
    26    18    15    1
    27     7     2   ar
    28    13     8   ar
