@<TRIPOS>MOLECULE
*****
 26 28 0 0 0
SMALL
GASTEIGER

@<TRIPOS>ATOM
      1 C          63.5992   88.7019   12.9705 C.ar    1  UNL1        0.1388
      2 C          62.7297   88.8621   11.7587 C.ar    1  UNL1        0.0538
      3 C          62.0709   87.6627   11.1444 C.ar    1  UNL1        0.0888
      4 N          62.2816   86.3030   11.7418 N.ar    1  UNL1       -0.2098
      5 C          63.1511   86.1428   12.9536 C.ar    1  UNL1        0.2539
      6 N          63.8098   87.3423   13.5679 N.ar    1  UNL1       -0.1948
      7 C          61.2015   87.8229    9.9326 C.ar    1  UNL1        0.0400
      8 C          60.7856   89.1925    9.4837 C.ar    1  UNL1        0.1006
      9 N          59.9162   89.3528    8.2720 N.ar    1  UNL1       -0.2391
     10 C          59.4625   88.1435    7.5091 C.ar    1  UNL1        0.1353
     11 C          59.8784   86.7740    7.9580 C.ar    1  UNL1        0.1528
     12 O          59.4247   85.5648    7.1951 O.3     1  UNL1       -0.5039
     13 C          60.7478   86.6137    9.1698 C.ar    1  UNL1        0.0413
     14 H          58.8816   85.6649    6.4382 H       1  UNL1        0.2923
     15 N          63.3618   84.7831   13.5510 N.ar    1  UNL1       -0.2008
     16 N          63.2839   83.4765   12.8185 N.ar    1  UNL1       -0.1673
     17 C          63.5613   82.3772   13.8006 C.ar    1  UNL1        0.0806
     18 C          63.5853   80.9085   13.4965 C.3     1  UNL1        0.0540
     19 C          63.8106   83.0045   15.1402 C.ar    1  UNL1        0.0313
     20 C          63.6873   84.4914   14.9859 C.ar    1  UNL1        0.0651
     21 C          63.8592   85.5081   16.0753 C.3     1  UNL1        0.0523
     22 C          64.4839   91.5837   15.5516 C.3     1  UNL1        0.0950
     23 C          63.8251   90.3843   14.9373 C.2     1  UNL1        0.2277
     24 O          62.7334   89.6679   15.6755 O.2     1  UNL1       -0.2747
     25 N          64.2579   89.9013   13.5848 N.am    1  UNL1       -0.2692
     26 H          64.9745   90.3715   13.1003 H       1  UNL1        0.1563
@<TRIPOS>BOND
     1    22    23    1
     2    23    24    2
     3    23    25   am
     4    25     1    1
     5     1     2   ar
     6     2     3   ar
     7     3     7    1
     8     7     8   ar
     9     8     9   ar
    10     9    10   ar
    11    10    11   ar
    12    11    12    1
    13    11    13   ar
    14     3     4   ar
    15     4     5   ar
    16     5    15    1
    17    15    16   ar
    18    16    17   ar
    19    17    18    1
    20    17    19   ar
    21    19    20   ar
    22    20    21    1
    23     5     6   ar
    24     6     1   ar
    25    13     7   ar
    26    20    15   ar
    27    25    26    1
    28    12    14    1
@<TRIPOS>MOLECULE
*****
 26 28 0 0 0
SMALL
GASTEIGER

@<TRIPOS>ATOM
      1 C          63.3062   85.9988   12.8866 C.ar    1  UNL1        0.1388
      2 C          62.4271   86.1935   11.6869 C.ar    1  UNL1        0.0538
      3 C          62.1243   87.5780   11.1956 C.ar    1  UNL1        0.0888
      4 N          62.7007   88.7679   11.9040 N.ar    1  UNL1       -0.2098
      5 C          63.5798   88.5733   13.1037 C.ar    1  UNL1        0.2539
      6 N          63.8825   87.1888   13.5950 N.ar    1  UNL1       -0.1948
      7 C          61.2452   87.7726    9.9959 C.ar    1  UNL1        0.0400
      8 C          60.8451   89.1558    9.5758 C.ar    1  UNL1        0.1006
      9 N          59.9659   89.3504    8.3761 N.ar    1  UNL1       -0.2391
     10 C          59.4869   88.1618    7.5965 C.ar    1  UNL1        0.1353
     11 C          59.8871   86.7785    8.0166 C.ar    1  UNL1        0.1528
     12 O          59.4081   85.5899    7.2371 O.3     1  UNL1       -0.5039
     13 C          60.7662   86.5840    9.2164 C.ar    1  UNL1        0.0413
     14 H          58.8589   85.7115    6.4877 H       1  UNL1        0.2923
     15 N          64.1561   89.7633   13.8122 N.ar    1  UNL1       -0.2008
     16 N          65.0436   90.8078   13.2026 N.ar    1  UNL1       -0.1673
     17 C          65.3822   91.8077   14.2682 C.ar    1  UNL1        0.0806
     18 C          66.2471   93.0210   14.0959 C.3     1  UNL1        0.0540
     19 C          64.7040   91.3811   15.5364 C.ar    1  UNL1        0.0313
     20 C          63.9463   90.1176   15.2545 C.ar    1  UNL1        0.0651
     21 C          63.1233   89.3443   16.2417 C.3     1  UNL1        0.0523
     22 C          63.1153   82.6431   14.9967 C.3     1  UNL1        0.0950
     23 C          62.8125   84.0277   14.5054 C.2     1  UNL1        0.2277
     24 O          61.7132   84.8256   15.1418 O.2     1  UNL1       -0.2747
     25 N          63.6090   84.6143   13.3779 N.am    1  UNL1       -0.2692
     26 H          64.3305   84.0906   12.9602 H       1  UNL1        0.1563
@<TRIPOS>BOND
     1    22    23    1
     2    23    24    2
     3    23    25   am
     4    25     1    1
     5     1     2   ar
     6     2     3   ar
     7     3     7    1
     8     7     8   ar
     9     8     9   ar
    10     9    10   ar
    11    10    11   ar
    12    11    12    1
    13    11    13   ar
    14     3     4   ar
    15     4     5   ar
    16     5    15    1
    17    15    16   ar
    18    16    17   ar
    19    17    18    1
    20    17    19   ar
    21    19    20   ar
    22    20    21    1
    23     5     6   ar
    24     6     1   ar
    25    13     7   ar
    26    20    15   ar
    27    25    26    1
    28    12    14    1
@<TRIPOS>MOLECULE
*****
 26 28 0 0 0
SMALL
GASTEIGER

@<TRIPOS>ATOM
      1 C          62.7556   88.5392   11.4968 C.ar    1  UNL1        0.1388
      2 C          63.3232   89.6505   12.3292 C.ar    1  UNL1        0.0538
      3 C          63.9826   89.3434   13.6410 C.ar    1  UNL1        0.0888
      4 N          64.0744   87.9251   14.1204 N.ar    1  UNL1       -0.2098
      5 C          63.5069   86.8139   13.2880 C.ar    1  UNL1        0.2539
      6 N          62.8475   87.1209   11.9762 N.ar    1  UNL1       -0.1948
      7 C          64.5502   90.4548   14.4734 C.ar    1  UNL1        0.0400
      8 C          63.8642   90.8672   15.7420 C.ar    1  UNL1        0.1006
      9 N          64.4318   91.9785   16.5744 N.ar    1  UNL1       -0.2391
     10 C          65.6853   92.6774   16.1382 C.ar    1  UNL1        0.1353
     11 C          66.3712   92.2650   14.8695 C.ar    1  UNL1        0.1528
     12 O          67.6247   92.9639   14.4333 O.3     1  UNL1       -0.5039
     13 C          65.8036   91.1537   14.0371 C.ar    1  UNL1        0.0413
     14 H          67.9792   93.6581   14.9533 H       1  UNL1        0.2923
     15 N          63.5987   85.3955   13.7675 N.ar    1  UNL1       -0.2008
     16 N          63.6957   84.1759   12.8995 N.ar    1  UNL1       -0.1673
     17 C          63.7666   82.9743   13.7945 C.ar    1  UNL1        0.0806
     18 C          63.8721   81.5466   13.3470 C.3     1  UNL1        0.0540
     19 C          63.7134   83.4513   15.2158 C.ar    1  UNL1        0.0313
     20 C          63.6096   84.9476   15.1990 C.ar    1  UNL1        0.0651
     21 C          63.5307   85.8394   16.4025 C.3     1  UNL1        0.0523
     22 C          59.9501   89.0150    8.7305 C.3     1  UNL1        0.0950
     23 C          60.6095   88.7079   10.0423 C.2     1  UNL1        0.2277
     24 O          59.7820   88.2625   11.2115 O.2     1  UNL1       -0.2747
     25 N          62.0962   88.8463   10.1849 N.am    1  UNL1       -0.2692
     26 H          62.6392   89.1386    9.4175 H       1  UNL1        0.1563
@<TRIPOS>BOND
     1    22    23    1
     2    23    24    2
     3    23    25   am
     4    25     1    1
     5     1     2   ar
     6     2     3   ar
     7     3     7    1
     8     7     8   ar
     9     8     9   ar
    10     9    10   ar
    11    10    11   ar
    12    11    12    1
    13    11    13   ar
    14     3     4   ar
    15     4     5   ar
    16     5    15    1
    17    15    16   ar
    18    16    17   ar
    19    17    18    1
    20    17    19   ar
    21    19    20   ar
    22    20    21    1
    23     5     6   ar
    24     6     1   ar
    25    13     7   ar
    26    20    15   ar
    27    25    26    1
    28    12    14    1
@<TRIPOS>MOLECULE
*****
 26 28 0 0 0
SMALL
GASTEIGER

@<TRIPOS>ATOM
      1 C          61.0874   87.3118   10.7933 C.ar    1  UNL1        0.1388
      2 C          61.4619   85.9605   11.3258 C.ar    1  UNL1        0.0538
      3 C          62.5803   85.8282   12.3166 C.ar    1  UNL1        0.0888
      4 N          63.3242   87.0474   12.7750 N.ar    1  UNL1       -0.2098
      5 C          62.9497   88.3988   12.2426 C.ar    1  UNL1        0.2539
      6 N          61.8313   88.5310   11.2518 N.ar    1  UNL1       -0.1948
      7 C          62.9547   84.4768   12.8490 C.ar    1  UNL1        0.0400
      8 C          63.5423   84.3485   14.2232 C.ar    1  UNL1        0.1006
      9 N          63.9167   82.9971   14.7556 N.ar    1  UNL1       -0.2391
     10 C          63.7036   81.7739   13.9138 C.ar    1  UNL1        0.1353
     11 C          63.1161   81.9022   12.5397 C.ar    1  UNL1        0.1528
     12 O          62.9030   80.6791   11.6979 O.3     1  UNL1       -0.5039
     13 C          62.7416   83.2537   12.0073 C.ar    1  UNL1        0.0413
     14 H          63.1369   79.8349   12.0305 H       1  UNL1        0.2923
     15 N          63.6936   89.6180   12.7011 N.ar    1  UNL1       -0.2008
     16 N          64.3961   89.7795   14.0166 N.ar    1  UNL1       -0.1673
     17 C          65.0023   91.1511   14.0531 C.ar    1  UNL1        0.0806
     18 C          65.7968   91.7341   15.1839 C.3     1  UNL1        0.0540
     19 C          64.6744   91.8373   12.7601 C.ar    1  UNL1        0.0313
     20 C          63.8657   90.8898   11.9245 C.ar    1  UNL1        0.0651
     21 C          63.3240   91.1657   10.5532 C.3     1  UNL1        0.0523
     22 C          58.9552   86.9139    7.4699 C.3     1  UNL1        0.0950
     23 C          60.0736   86.7817    8.4608 C.2     1  UNL1        0.2277
     24 O          61.2965   85.9871    8.1098 O.2     1  UNL1       -0.2747
     25 N          59.9691   87.4440    9.8025 N.am    1  UNL1       -0.2692
     26 H          59.1665   87.9656   10.0328 H       1  UNL1        0.1563
@<TRIPOS>BOND
     1    22    23    1
     2    23    24    2
     3    23    25   am
     4    25     1    1
     5     1     2   ar
     6     2     3   ar
     7     3     7    1
     8     7     8   ar
     9     8     9   ar
    10     9    10   ar
    11    10    11   ar
    12    11    12    1
    13    11    13   ar
    14     3     4   ar
    15     4     5   ar
    16     5    15    1
    17    15    16   ar
    18    16    17   ar
    19    17    18    1
    20    17    19   ar
    21    19    20   ar
    22    20    21    1
    23     5     6   ar
    24     6     1   ar
    25    13     7   ar
    26    20    15   ar
    27    25    26    1
    28    12    14    1
@<TRIPOS>MOLECULE
*****
 26 28 0 0 0
SMALL
GASTEIGER

@<TRIPOS>ATOM
      1 C          61.1153   87.5425   10.8344 C.ar    1  UNL1        0.1388
      2 C          61.8618   88.8191   11.0855 C.ar    1  UNL1        0.0538
      3 C          63.0274   88.8330   12.0296 C.ar    1  UNL1        0.0888
      4 N          63.4464   87.5704   12.7225 N.ar    1  UNL1       -0.2098
      5 C          62.6999   86.2939   12.4714 C.ar    1  UNL1        0.2539
      6 N          61.5343   86.2800   11.5274 N.ar    1  UNL1       -0.1948
      7 C          63.7740   90.1096   12.2807 C.ar    1  UNL1        0.0400
      8 C          64.2587   90.4357   13.6623 C.ar    1  UNL1        0.1006
      9 N          65.0052   91.7122   13.9134 N.ar    1  UNL1       -0.2391
     10 C          65.2670   92.6628   12.7829 C.ar    1  UNL1        0.1353
     11 C          64.7823   92.3368   11.4013 C.ar    1  UNL1        0.1528
     12 O          65.0441   93.2873   10.2709 O.3     1  UNL1       -0.5039
     13 C          64.0357   91.0602   11.1502 C.ar    1  UNL1        0.0413
     14 H          65.5104   94.0847   10.4278 H       1  UNL1        0.2923
     15 N          63.1189   85.0312   13.1644 N.ar    1  UNL1       -0.2008
     16 N          62.9244   83.6362   12.6486 N.ar    1  UNL1       -0.1673
     17 C          63.4912   82.6847   13.6602 C.ar    1  UNL1        0.0806
     18 C          63.5100   81.1888   13.5501 C.3     1  UNL1        0.0540
     19 C          64.0361   83.4917   14.8012 C.ar    1  UNL1        0.0313
     20 C          63.8060   84.9419   14.4948 C.ar    1  UNL1        0.0651
     21 C          64.1947   86.0995   15.3658 C.3     1  UNL1        0.0523
     22 C          58.8867   86.7868    7.6388 C.3     1  UNL1        0.0950
     23 C          60.0523   86.8007    8.5829 C.2     1  UNL1        0.2277
     24 O          61.3204   86.0867    8.2193 O.2     1  UNL1       -0.2747
     25 N          59.9497   87.5286    9.8904 N.am    1  UNL1       -0.2692
     26 H          59.1174   87.9972   10.1289 H       1  UNL1        0.1563
@<TRIPOS>BOND
     1    22    23    1
     2    23    24    2
     3    23    25   am
     4    25     1    1
     5     1     2   ar
     6     2     3   ar
     7     3     7    1
     8     7     8   ar
     9     8     9   ar
    10     9    10   ar
    11    10    11   ar
    12    11    12    1
    13    11    13   ar
    14     3     4   ar
    15     4     5   ar
    16     5    15    1
    17    15    16   ar
    18    16    17   ar
    19    17    18    1
    20    17    19   ar
    21    19    20   ar
    22    20    21    1
    23     5     6   ar
    24     6     1   ar
    25    13     7   ar
    26    20    15   ar
    27    25    26    1
    28    12    14    1
@<TRIPOS>MOLECULE
*****
 26 28 0 0 0
SMALL
GASTEIGER

@<TRIPOS>ATOM
      1 C          61.1329   87.4788   10.8780 C.ar    1  UNL1        0.1388
      2 C          61.8916   88.7419   11.1586 C.ar    1  UNL1        0.0538
      3 C          63.0430   88.7274   12.1199 C.ar    1  UNL1        0.0888
      4 N          63.4356   87.4498   12.8007 N.ar    1  UNL1       -0.2098
      5 C          62.6768   86.1867   12.5202 C.ar    1  UNL1        0.2539
      6 N          61.5255   86.2012   11.5588 N.ar    1  UNL1       -0.1948
      7 C          63.8018   89.9907   12.4004 C.ar    1  UNL1        0.0400
      8 C          63.8940   91.0588   11.3513 C.ar    1  UNL1        0.1006
      9 N          64.6527   92.3220   11.6317 N.ar    1  UNL1       -0.2391
     10 C          65.3193   92.5170   12.9613 C.ar    1  UNL1        0.1353
     11 C          65.2271   91.4489   14.0104 C.ar    1  UNL1        0.1528
     12 O          65.8937   91.6439   15.3399 O.3     1  UNL1       -0.5039
     13 C          64.4683   90.1857   13.7299 C.ar    1  UNL1        0.0413
     14 H          66.3676   92.4330   15.5151 H       1  UNL1        0.2923
     15 N          63.0694   84.9090   13.2010 N.ar    1  UNL1       -0.2008
     16 N          62.8508   83.5235   12.6694 N.ar    1  UNL1       -0.1673
     17 C          63.3957   82.5507   13.6727 C.ar    1  UNL1        0.0806
     18 C          63.3868   81.0561   13.5466 C.3     1  UNL1        0.0540
     19 C          63.9512   83.3351   14.8244 C.ar    1  UNL1        0.0313
     20 C          63.7495   84.7925   14.5329 C.ar    1  UNL1        0.0651
     21 C          64.1565   85.9332   15.4178 C.3     1  UNL1        0.0523
     22 C          58.9431   86.7975    7.6391 C.3     1  UNL1        0.0950
     23 C          60.0945   86.7830    8.6004 C.2     1  UNL1        0.2277
     24 O          61.3589   86.0581    8.2454 O.2     1  UNL1       -0.2747
     25 N          59.9815   87.4933    9.9167 N.am    1  UNL1       -0.2692
     26 H          59.1517   87.9690   10.1497 H       1  UNL1        0.1563
@<TRIPOS>BOND
     1    22    23    1
     2    23    24    2
     3    23    25   am
     4    25     1    1
     5     1     2   ar
     6     2     3   ar
     7     3     7    1
     8     7     8   ar
     9     8     9   ar
    10     9    10   ar
    11    10    11   ar
    12    11    12    1
    13    11    13   ar
    14     3     4   ar
    15     4     5   ar
    16     5    15    1
    17    15    16   ar
    18    16    17   ar
    19    17    18    1
    20    17    19   ar
    21    19    20   ar
    22    20    21    1
    23     5     6   ar
    24     6     1   ar
    25    13     7   ar
    26    20    15   ar
    27    25    26    1
    28    12    14    1
@<TRIPOS>MOLECULE
*****
 26 28 0 0 0
SMALL
GASTEIGER

@<TRIPOS>ATOM
      1 C          62.3438   87.7992   10.8519 C.ar    1  UNL1        0.1388
      2 C          62.4347   86.3957   11.3733 C.ar    1  UNL1        0.0538
      3 C          63.0984   86.1267   12.6913 C.ar    1  UNL1        0.0888
      4 N          63.6712   87.2612   13.4880 N.ar    1  UNL1       -0.2098
      5 C          63.5803   88.6648   12.9666 C.ar    1  UNL1        0.2539
      6 N          62.9166   88.9337   11.6486 N.ar    1  UNL1       -0.1948
      7 C          63.1892   84.7231   13.2126 C.ar    1  UNL1        0.0400
      8 C          63.4866   84.4794   14.6625 C.ar    1  UNL1        0.1006
      9 N          63.5775   83.0759   15.1839 N.ar    1  UNL1       -0.2391
     10 C          63.3710   81.9160   14.2553 C.ar    1  UNL1        0.1353
     11 C          63.0736   82.1597   12.8055 C.ar    1  UNL1        0.1528
     12 O          62.8671   81.0000   11.8769 O.3     1  UNL1       -0.5039
     13 C          62.9827   83.5633   12.2841 C.ar    1  UNL1        0.0413
     14 H          62.9238   80.1232   12.2026 H       1  UNL1        0.2923
     15 N          64.1531   89.7994   13.7633 N.ar    1  UNL1       -0.2008
     16 N          65.0785   90.8607   13.2464 N.ar    1  UNL1       -0.1673
     17 C          65.3985   91.7891   14.3803 C.ar    1  UNL1        0.0806
     18 C          66.2896   92.9936   14.3090 C.3     1  UNL1        0.0540
     19 C          64.6707   91.3015   15.5980 C.ar    1  UNL1        0.0313
     20 C          63.9011   90.0718   15.2166 C.ar    1  UNL1        0.0651
     21 C          63.0319   89.2576   16.1285 C.3     1  UNL1        0.0523
     22 C          59.7478   89.1358    8.1642 C.3     1  UNL1        0.0950
     23 C          60.4115   88.8669    9.4822 C.2     1  UNL1        0.2277
     24 O          59.8065   89.3966   10.7485 O.2     1  UNL1       -0.2747
     25 N          61.6801   88.0682    9.5339 N.am    1  UNL1       -0.2692
     26 H          62.0771   87.7206    8.7028 H       1  UNL1        0.1563
@<TRIPOS>BOND
     1    22    23    1
     2    23    24    2
     3    23    25   am
     4    25     1    1
     5     1     2   ar
     6     2     3   ar
     7     3     7    1
     8     7     8   ar
     9     8     9   ar
    10     9    10   ar
    11    10    11   ar
    12    11    12    1
    13    11    13   ar
    14     3     4   ar
    15     4     5   ar
    16     5    15    1
    17    15    16   ar
    18    16    17   ar
    19    17    18    1
    20    17    19   ar
    21    19    20   ar
    22    20    21    1
    23     5     6   ar
    24     6     1   ar
    25    13     7   ar
    26    20    15   ar
    27    25    26    1
    28    12    14    1
@<TRIPOS>MOLECULE
*****
 26 28 0 0 0
SMALL
GASTEIGER

@<TRIPOS>ATOM
      1 C          61.6179   87.2174    9.8965 C.ar    1  UNL1        0.1388
      2 C          62.2338   88.3120   10.7165 C.ar    1  UNL1        0.0538
      3 C          62.9786   87.9780   11.9749 C.ar    1  UNL1        0.0888
      4 N          63.1076   86.5494   12.4134 N.ar    1  UNL1       -0.2098
      5 C          62.4917   85.4548   11.5934 C.ar    1  UNL1        0.2539
      6 N          61.7469   85.7888   10.3349 N.ar    1  UNL1       -0.1948
      7 C          63.5944   89.0728   12.7949 C.ar    1  UNL1        0.0400
      8 C          63.9505   88.8246   14.2308 C.ar    1  UNL1        0.1006
      9 N          64.5664   89.9192   15.0508 N.ar    1  UNL1       -0.2391
     10 C          64.8261   91.2622   14.4349 C.ar    1  UNL1        0.1353
     11 C          64.4700   91.5104   12.9991 C.ar    1  UNL1        0.1528
     12 O          64.7297   92.8532   12.3833 O.3     1  UNL1       -0.5039
     13 C          63.8542   90.4156   12.1791 C.ar    1  UNL1        0.0413
     14 H          65.1144   93.5370   12.8955 H       1  UNL1        0.2923
     15 N          62.6207   84.0260   12.0318 N.ar    1  UNL1       -0.2008
     16 N          62.0118   83.4232   13.2630 N.ar    1  UNL1       -0.1673
     17 C          62.3959   81.9739   13.3081 C.ar    1  UNL1        0.0806
     18 C          62.0028   80.9902   14.3701 C.3     1  UNL1        0.0540
     19 C          63.2424   81.6811   12.1048 C.ar    1  UNL1        0.0313
     20 C          63.3813   82.9493   11.3160 C.ar    1  UNL1        0.0651
     21 C          64.1464   83.1123   10.0362 C.3     1  UNL1        0.0523
     22 C          59.3048   89.1369    7.3052 C.3     1  UNL1        0.0950
     23 C          60.0497   88.8029    8.5636 C.2     1  UNL1        0.2277
     24 O          59.9710   89.7206    9.7476 O.2     1  UNL1       -0.2747
     25 N          60.8731   87.5514    8.6380 N.am    1  UNL1       -0.2692
     26 H          60.9247   86.9492    7.8609 H       1  UNL1        0.1563
@<TRIPOS>BOND
     1    22    23    1
     2    23    24    2
     3    23    25   am
     4    25     1    1
     5     1     2   ar
     6     2     3   ar
     7     3     7    1
     8     7     8   ar
     9     8     9   ar
    10     9    10   ar
    11    10    11   ar
    12    11    12    1
    13    11    13   ar
    14     3     4   ar
    15     4     5   ar
    16     5    15    1
    17    15    16   ar
    18    16    17   ar
    19    17    18    1
    20    17    19   ar
    21    19    20   ar
    22    20    21    1
    23     5     6   ar
    24     6     1   ar
    25    13     7   ar
    26    20    15   ar
    27    25    26    1
    28    12    14    1
@<TRIPOS>MOLECULE
*****
 26 28 0 0 0
SMALL
GASTEIGER

@<TRIPOS>ATOM
      1 C          63.7607   88.0963   13.4118 C.ar    1  UNL1        0.1388
      2 C          63.9253   86.6459   13.7569 C.ar    1  UNL1        0.0538
      3 C          63.2326   85.5970   12.9384 C.ar    1  UNL1        0.0888
      4 N          62.3753   85.9985   11.7748 N.ar    1  UNL1       -0.2098
      5 C          62.2108   87.4489   11.4298 C.ar    1  UNL1        0.2539
      6 N          62.9035   88.4978   12.2483 N.ar    1  UNL1       -0.1948
      7 C          63.3971   84.1465   13.2835 C.ar    1  UNL1        0.0400
      8 C          63.8983   83.7507   14.6408 C.ar    1  UNL1        0.1006
      9 N          64.0629   82.3002   14.9859 N.ar    1  UNL1       -0.2391
     10 C          63.7263   81.2455   13.9737 C.ar    1  UNL1        0.1353
     11 C          63.2251   81.6413   12.6165 C.ar    1  UNL1        0.1528
     12 O          62.8885   80.5867   11.6043 O.3     1  UNL1       -0.5039
     13 C          63.0605   83.0918   12.2714 C.ar    1  UNL1        0.0413
     14 H          62.9913   79.6807   11.8199 H       1  UNL1        0.2923
     15 N          61.3535   87.8505   10.2662 N.ar    1  UNL1       -0.2008
     16 N          60.4636   86.9414    9.4715 N.ar    1  UNL1       -0.1673
     17 C          59.7957   87.7606    8.4072 C.ar    1  UNL1        0.0806
     18 C          58.8217   87.2535    7.3854 C.3     1  UNL1        0.0540
     19 C          60.2729   89.1762    8.5442 C.ar    1  UNL1        0.0313
     20 C          61.2356   89.2317    9.6931 C.ar    1  UNL1        0.0651
     21 C          61.9543   90.4538   10.1829 C.3     1  UNL1        0.0523
     22 C          64.3650   91.0169   16.0301 C.3     1  UNL1        0.0950
     23 C          63.6723   89.9679   15.2116 C.2     1  UNL1        0.2277
     24 O          62.1984   89.7417   15.3744 O.2     1  UNL1       -0.2747
     25 N          64.4534   89.1452   14.2303 N.am    1  UNL1       -0.2692
     26 H          65.4208   89.2937   14.1235 H       1  UNL1        0.1563
@<TRIPOS>BOND
     1    22    23    1
     2    23    24    2
     3    23    25   am
     4    25     1    1
     5     1     2   ar
     6     2     3   ar
     7     3     7    1
     8     7     8   ar
     9     8     9   ar
    10     9    10   ar
    11    10    11   ar
    12    11    12    1
    13    11    13   ar
    14     3     4   ar
    15     4     5   ar
    16     5    15    1
    17    15    16   ar
    18    16    17   ar
    19    17    18    1
    20    17    19   ar
    21    19    20   ar
    22    20    21    1
    23     5     6   ar
    24     6     1   ar
    25    13     7   ar
    26    20    15   ar
    27    25    26    1
    28    12    14    1
