@<TRIPOS>MOLECULE
*****
 34 39 0 0 0
SMALL
GASTEIGER

@<TRIPOS>ATOM
      1 CL         58.3813   94.5787   -5.9352 Cl      1  UNL1       -0.0598
      2 C          59.8346   94.9313   -6.0525 C.ar    1  UNL1        0.1540
      3 N          60.4028   95.3386   -7.3796 N.ar    1  UNL1       -0.2310
      4 C          61.8561   95.6911   -7.4969 C.ar    1  UNL1        0.0999
      5 C          62.7411   95.6363   -6.2871 C.ar    1  UNL1        0.0223
      6 C          62.1729   95.2290   -4.9600 C.ar    1  UNL1        0.0241
      7 C          62.7959   95.0841   -3.6032 C.ar    1  UNL1        0.0550
      8 C          64.1979   95.2976   -3.1146 C.ar    1  UNL1        0.1048
      9 N          64.5318   95.0691   -1.6702 N.ar    1  UNL1       -0.2119
     10 C          63.4636   94.6271   -0.7144 C.ar    1  UNL1        0.2231
     11 N          62.0616   94.4136   -1.2030 N.ar    1  UNL1       -0.1961
     12 C          61.7278   94.6421   -2.6474 C.ar    1  UNL1        0.1482
     13 N          60.4446   94.5137   -3.4135 N.ar    1  UNL1       -0.3125
     14 C          60.7196   94.8764   -4.8427 C.ar    1  UNL1        0.0898
     15 C          59.1189   94.0960   -2.8493 C.3     1  UNL1        0.0869
     16 C          58.1323   94.9916   -2.1604 C.3     1  UNL1        0.0226
     17 C          56.9508   94.1585   -1.7604 C.3     1  UNL1        0.0020
     18 C          57.2072   92.7481   -2.2020 C.3     1  UNL1        0.0020
     19 C          58.5472   92.7096   -2.8750 C.3     1  UNL1        0.0226
     20 N          63.7975   94.3986    0.7301 N.pl3   1  UNL1       -0.2679
     21 H          64.6609   94.7053    1.0902 H       1  UNL1        0.1565
     22 C          62.8159   93.7028    1.6256 C.ar    1  UNL1        0.1344
     23 C          63.2407   92.4976    2.4111 C.ar    1  UNL1        0.0358
     24 C          62.2590   91.8018    3.3068 C.ar    1  UNL1        0.0190
     25 C          60.8524   92.3111    3.4169 C.ar    1  UNL1        0.0675
     26 C          60.4275   93.5163    2.6314 C.ar    1  UNL1        0.1147
     27 N          61.4093   94.2122    1.7357 N.ar    1  UNL1       -0.2277
     28 N          59.8707   91.6154    4.3125 N.pl3   1  UNL1       -0.3035
     29 C          60.3436   90.5578    5.2653 C.3     1  UNL1        0.1079
     30 C          59.3618   89.8620    6.1609 C.3     1  UNL1        0.0903
     31 N          57.9073   90.2238    6.1037 N.3     1  UNL1       -0.2946
     32 C          57.4344   91.2814    5.1508 C.3     1  UNL1        0.0903
     33 C          58.4161   91.9772    4.2553 C.3     1  UNL1        0.1079
     34 H          57.6434   90.5315    7.0397 H       1  UNL1        0.1233
@<TRIPOS>BOND
     1     1     2    1
     2     2     3   ar
     3     3     4   ar
     4     4     5   ar
     5     5     6   ar
     6     6     7   ar
     7     7     8   ar
     8     8     9   ar
     9     9    10   ar
    10    10    20    1
    11    20    22    1
    12    22    23   ar
    13    23    24   ar
    14    24    25   ar
    15    25    28    1
    16    28    29    1
    17    29    30    1
    18    30    31    1
    19    31    32    1
    20    32    33    1
    21    25    26   ar
    22    26    27   ar
    23    10    11   ar
    24    11    12   ar
    25    12    13   ar
    26    13    15    1
    27    15    16    1
    28    16    17    1
    29    17    18    1
    30    18    19    1
    31    13    14   ar
    32    14     2   ar
    33    14     6   ar
    34    12     7   ar
    35    19    15    1
    36    27    22   ar
    37    33    28    1
    38    20    21    1
    39    31    34    1
@<TRIPOS>MOLECULE
*****
 34 39 0 0 0
SMALL
GASTEIGER

@<TRIPOS>ATOM
      1 CL         60.7147   94.2955   -5.2136 Cl      1  UNL1       -0.0598
      2 C          61.7519   94.0063   -4.1693 C.ar    1  UNL1        0.1540
      3 N          63.2004   93.9312   -4.5514 N.ar    1  UNL1       -0.2310
      4 C          64.2376   93.6420   -3.5071 C.ar    1  UNL1        0.0999
      5 C          63.8262   93.4279   -2.0806 C.ar    1  UNL1        0.0223
      6 C          62.3777   93.5030   -1.6985 C.ar    1  UNL1        0.0241
      7 C          61.6769   93.3374   -0.3826 C.ar    1  UNL1        0.0550
      8 C          62.1876   93.0405    0.9962 C.ar    1  UNL1        0.1048
      9 N          61.2280   92.9305    2.1439 N.ar    1  UNL1       -0.2119
     10 C          59.7578   93.1173    1.9128 C.ar    1  UNL1        0.2231
     11 N          59.2470   93.4142    0.5340 N.ar    1  UNL1       -0.1961
     12 C          60.2066   93.5242   -0.6137 C.ar    1  UNL1        0.1482
     13 N          59.9987   93.8053   -2.0724 N.ar    1  UNL1       -0.3125
     14 C          61.3405   93.7922   -2.7428 C.ar    1  UNL1        0.0898
     15 C          58.6805   94.0556   -2.7430 C.3     1  UNL1        0.0869
     16 C          58.0772   95.3991   -3.0277 C.3     1  UNL1        0.0226
     17 C          56.7580   95.1801   -3.7072 C.3     1  UNL1        0.0020
     18 C          56.5460   93.7013   -3.8425 C.3     1  UNL1        0.0020
     19 C          57.7342   93.0064   -3.2465 C.3     1  UNL1        0.0226
     20 N          58.7982   93.0073    3.0605 N.pl3   1  UNL1       -0.2679
     21 H          58.0185   93.6064    3.1094 H       1  UNL1        0.1565
     22 C          59.0266   91.9846    4.1336 C.ar    1  UNL1        0.1344
     23 C          57.8611   91.4122    4.8845 C.ar    1  UNL1        0.0358
     24 C          58.0896   90.3893    5.9577 C.ar    1  UNL1        0.0190
     25 C          59.4837   89.9389    6.2799 C.ar    1  UNL1        0.0675
     26 C          60.6492   90.5112    5.5289 C.ar    1  UNL1        0.1147
     27 N          60.4207   91.5341    4.4557 N.ar    1  UNL1       -0.2277
     28 N          59.7122   88.9161    7.3530 N.pl3   1  UNL1       -0.3035
     29 C          60.2096   89.3429    8.7022 C.3     1  UNL1        0.1079
     30 C          60.4381   88.3201    9.7753 C.3     1  UNL1        0.0903
     31 N          60.1693   86.8705    9.4993 N.3     1  UNL1       -0.2946
     32 C          59.6719   86.4437    8.1501 C.3     1  UNL1        0.0903
     33 C          59.4434   87.4664    7.0769 C.3     1  UNL1        0.1079
     34 H          59.4734   86.5653   10.1797 H       1  UNL1        0.1233
@<TRIPOS>BOND
     1     1     2    1
     2     2     3   ar
     3     3     4   ar
     4     4     5   ar
     5     5     6   ar
     6     6     7   ar
     7     7     8   ar
     8     8     9   ar
     9     9    10   ar
    10    10    20    1
    11    20    22    1
    12    22    23   ar
    13    23    24   ar
    14    24    25   ar
    15    25    28    1
    16    28    29    1
    17    29    30    1
    18    30    31    1
    19    31    32    1
    20    32    33    1
    21    25    26   ar
    22    26    27   ar
    23    10    11   ar
    24    11    12   ar
    25    12    13   ar
    26    13    15    1
    27    15    16    1
    28    16    17    1
    29    17    18    1
    30    18    19    1
    31    13    14   ar
    32    14     2   ar
    33    14     6   ar
    34    12     7   ar
    35    19    15    1
    36    27    22   ar
    37    33    28    1
    38    20    21    1
    39    31    34    1
@<TRIPOS>MOLECULE
*****
 34 39 0 0 0
SMALL
GASTEIGER

@<TRIPOS>ATOM
      1 CL         65.4520   94.1644    0.7823 Cl      1  UNL1       -0.0598
      2 C          64.1638   93.4277    1.0006 C.ar    1  UNL1        0.1540
      3 N          63.9970   92.5492    2.2049 N.ar    1  UNL1       -0.2310
      4 C          62.7087   91.8124    2.4232 C.ar    1  UNL1        0.0999
      5 C          61.5873   91.9542    1.4372 C.ar    1  UNL1        0.0223
      6 C          61.7541   92.8327    0.2329 C.ar    1  UNL1        0.0241
      7 C          60.8319   93.1653   -0.9024 C.ar    1  UNL1        0.0550
      8 C          59.4308   92.7318   -1.2173 C.ar    1  UNL1        0.1048
      9 N          58.7480   93.2407   -2.4522 N.ar    1  UNL1       -0.2119
     10 C          59.4663   94.1829   -3.3721 C.ar    1  UNL1        0.2231
     11 N          60.8673   94.6164   -3.0572 N.ar    1  UNL1       -0.1961
     12 C          61.5501   94.1075   -1.8223 C.ar    1  UNL1        0.1482
     13 N          62.9163   94.3573   -1.2556 N.ar    1  UNL1       -0.3125
     14 C          63.0424   93.5694    0.0146 C.ar    1  UNL1        0.0898
     15 C          63.9712   95.2400   -1.8539 C.3     1  UNL1        0.0869
     16 C          64.8822   96.1616   -1.0984 C.3     1  UNL1        0.0226
     17 C          65.7743   96.8472   -2.0904 C.3     1  UNL1        0.0020
     18 C          65.4147   96.3495   -3.4590 C.3     1  UNL1        0.0020
     19 C          64.3002   95.3562   -3.3127 C.3     1  UNL1        0.0226
     20 N          58.7835   94.6918   -4.6070 N.pl3   1  UNL1       -0.2679
     21 H          59.2905   94.7890   -5.4453 H       1  UNL1        0.1565
     22 C          57.3281   95.0524   -4.5647 C.ar    1  UNL1        0.1344
     23 C          56.4108   94.5987   -5.6613 C.ar    1  UNL1        0.0358
     24 C          54.9553   94.9594   -5.6189 C.ar    1  UNL1        0.0190
     25 C          54.4173   95.7738   -4.4799 C.ar    1  UNL1        0.0675
     26 C          55.3347   96.2274   -3.3832 C.ar    1  UNL1        0.1147
     27 N          56.7901   95.8668   -3.4256 N.ar    1  UNL1       -0.2277
     28 N          52.9620   96.1345   -4.4374 N.pl3   1  UNL1       -0.3035
     29 C          52.2341   96.1622   -3.1262 C.3     1  UNL1        0.1079
     30 C          50.7787   96.5229   -3.0837 C.3     1  UNL1        0.0903
     31 N          50.0513   96.8558   -4.3525 N.3     1  UNL1       -0.2946
     32 C          50.7792   96.8281   -5.6637 C.3     1  UNL1        0.0903
     33 C          52.2345   96.4675   -5.7063 C.3     1  UNL1        0.1079
     34 H          49.6816   97.7999   -4.2408 H       1  UNL1        0.1233
@<TRIPOS>BOND
     1     1     2    1
     2     2     3   ar
     3     3     4   ar
     4     4     5   ar
     5     5     6   ar
     6     6     7   ar
     7     7     8   ar
     8     8     9   ar
     9     9    10   ar
    10    10    20    1
    11    20    22    1
    12    22    23   ar
    13    23    24   ar
    14    24    25   ar
    15    25    28    1
    16    28    29    1
    17    29    30    1
    18    30    31    1
    19    31    32    1
    20    32    33    1
    21    25    26   ar
    22    26    27   ar
    23    10    11   ar
    24    11    12   ar
    25    12    13   ar
    26    13    15    1
    27    15    16    1
    28    16    17    1
    29    17    18    1
    30    18    19    1
    31    13    14   ar
    32    14     2   ar
    33    14     6   ar
    34    12     7   ar
    35    19    15    1
    36    27    22   ar
    37    33    28    1
    38    20    21    1
    39    31    34    1
@<TRIPOS>MOLECULE
*****
 34 39 0 0 0
SMALL
GASTEIGER

@<TRIPOS>ATOM
      1 CL         65.3969   95.3471   -1.2535 Cl      1  UNL1       -0.0598
      2 C          64.2596   94.5869   -1.8689 C.ar    1  UNL1        0.1540
      3 N          64.3026   94.2195   -3.3225 N.ar    1  UNL1       -0.2310
      4 C          63.1653   93.4593   -3.9379 C.ar    1  UNL1        0.0999
      5 C          61.9851   93.0665   -3.0996 C.ar    1  UNL1        0.0223
      6 C          61.9421   93.4339   -1.6460 C.ar    1  UNL1        0.0241
      7 C          60.9191   93.1851   -0.5776 C.ar    1  UNL1        0.0550
      8 C          59.5929   92.4846   -0.6016 C.ar    1  UNL1        0.1048
      9 N          58.7717   92.3906    0.6501 N.ar    1  UNL1       -0.2119
     10 C          59.2766   92.9969    1.9258 C.ar    1  UNL1        0.2231
     11 N          60.6028   93.6974    1.9497 N.ar    1  UNL1       -0.1961
     12 C          61.4240   93.7914    0.6980 C.ar    1  UNL1        0.1482
     13 N          62.7592   94.4151    0.4181 N.ar    1  UNL1       -0.3125
     14 C          63.0794   94.1941   -1.0306 C.ar    1  UNL1        0.0898
     15 C          63.6226   95.1335    1.4122 C.3     1  UNL1        0.0869
     16 C          63.4522   96.5536    1.8641 C.3     1  UNL1        0.0226
     17 C          64.5323   96.8558    2.8602 C.3     1  UNL1        0.0020
     18 C          65.3702   95.6225    3.0239 C.3     1  UNL1        0.0020
     19 C          64.8079   94.5581    2.1290 C.3     1  UNL1        0.0226
     20 N          58.4554   92.9029    3.1775 N.pl3   1  UNL1       -0.2679
     21 H          57.6977   93.5159    3.3164 H       1  UNL1        0.1565
     22 C          58.7887   91.8748    4.2176 C.ar    1  UNL1        0.1344
     23 C          60.2188   91.4990    4.4695 C.ar    1  UNL1        0.0358
     24 C          60.5521   90.4708    5.5097 C.ar    1  UNL1        0.0190
     25 C          59.4552   89.8185    6.2979 C.ar    1  UNL1        0.0675
     26 C          58.0250   90.1943    6.0460 C.ar    1  UNL1        0.1147
     27 N          57.6917   91.2225    5.0058 N.ar    1  UNL1       -0.2277
     28 N          59.7884   88.7904    7.3381 N.pl3   1  UNL1       -0.3035
     29 C          60.4153   89.2108    8.6343 C.3     1  UNL1        0.1079
     30 C          60.7485   88.1826    9.6744 C.3     1  UNL1        0.0903
     31 N          60.4548   86.7342    9.4184 N.3     1  UNL1       -0.2946
     32 C          59.8279   86.3138    8.1221 C.3     1  UNL1        0.0903
     33 C          59.4947   87.3418    7.0820 C.3     1  UNL1        0.1079
     34 H          59.8291   86.4247   10.1621 H       1  UNL1        0.1233
@<TRIPOS>BOND
     1     1     2    1
     2     2     3   ar
     3     3     4   ar
     4     4     5   ar
     5     5     6   ar
     6     6     7   ar
     7     7     8   ar
     8     8     9   ar
     9     9    10   ar
    10    10    20    1
    11    20    22    1
    12    22    23   ar
    13    23    24   ar
    14    24    25   ar
    15    25    28    1
    16    28    29    1
    17    29    30    1
    18    30    31    1
    19    31    32    1
    20    32    33    1
    21    25    26   ar
    22    26    27   ar
    23    10    11   ar
    24    11    12   ar
    25    12    13   ar
    26    13    15    1
    27    15    16    1
    28    16    17    1
    29    17    18    1
    30    18    19    1
    31    13    14   ar
    32    14     2   ar
    33    14     6   ar
    34    12     7   ar
    35    19    15    1
    36    27    22   ar
    37    33    28    1
    38    20    21    1
    39    31    34    1
@<TRIPOS>MOLECULE
*****
 34 39 0 0 0
SMALL
GASTEIGER

@<TRIPOS>ATOM
      1 CL         64.1429   94.9461    1.7561 Cl      1  UNL1       -0.0598
      2 C          64.6563   95.5443    0.4800 C.ar    1  UNL1        0.1540
      3 N          65.9756   96.2578    0.4636 N.ar    1  UNL1       -0.2310
      4 C          66.4890   96.8560   -0.8126 C.ar    1  UNL1        0.0999
      5 C          65.6831   96.7406   -2.0724 C.ar    1  UNL1        0.0223
      6 C          64.3638   96.0271   -2.0560 C.ar    1  UNL1        0.0241
      7 C          63.3555   95.7568   -3.1332 C.ar    1  UNL1        0.0550
      8 C          63.3254   96.1086   -4.5910 C.ar    1  UNL1        0.1048
      9 N          62.1588   95.6952   -5.4384 N.ar    1  UNL1       -0.2119
     10 C          61.0222   94.9300   -4.8280 C.ar    1  UNL1        0.2231
     11 N          61.0523   94.5782   -3.3702 N.ar    1  UNL1       -0.1961
     12 C          62.2189   94.9916   -2.5227 C.ar    1  UNL1        0.1482
     13 N          62.5248   94.7889   -1.0683 N.ar    1  UNL1       -0.3125
     14 C          63.8504   95.4289   -0.7799 C.ar    1  UNL1        0.0898
     15 C          61.6574   94.0721   -0.0764 C.3     1  UNL1        0.0869
     16 C          60.6957   94.7136    0.8794 C.3     1  UNL1        0.0226
     17 C          60.0433   93.6260    1.6803 C.3     1  UNL1        0.0020
     18 C          60.6018   92.3123    1.2195 C.3     1  UNL1        0.0020
     19 C          61.5994   92.5881    0.1338 C.3     1  UNL1        0.0226
     20 N          59.8556   94.5166   -5.6754 N.pl3   1  UNL1       -0.2679
     21 H          60.0081   94.0561   -6.5321 H       1  UNL1        0.1565
     22 C          58.4566   94.8047   -5.2175 C.ar    1  UNL1        0.1344
     23 C          57.5763   93.6855   -4.7459 C.ar    1  UNL1        0.0358
     24 C          56.1772   93.9736   -4.2880 C.ar    1  UNL1        0.0190
     25 C          55.6585   95.3811   -4.3015 C.ar    1  UNL1        0.0675
     26 C          56.5389   96.5003   -4.7730 C.ar    1  UNL1        0.1147
     27 N          57.9379   96.2121   -5.2310 N.ar    1  UNL1       -0.2277
     28 N          54.2595   95.6693   -3.8436 N.pl3   1  UNL1       -0.3035
     29 C          53.2329   96.1499   -4.8259 C.3     1  UNL1        0.1079
     30 C          51.8339   96.4381   -4.3680 C.3     1  UNL1        0.0903
     31 N          51.4616   96.2457   -2.9278 N.3     1  UNL1       -0.2946
     32 C          52.4882   95.7651   -1.9455 C.3     1  UNL1        0.0903
     33 C          53.8872   95.4769   -2.4033 C.3     1  UNL1        0.1079
     34 H          50.6972   95.5705   -2.9089 H       1  UNL1        0.1233
@<TRIPOS>BOND
     1     1     2    1
     2     2     3   ar
     3     3     4   ar
     4     4     5   ar
     5     5     6   ar
     6     6     7   ar
     7     7     8   ar
     8     8     9   ar
     9     9    10   ar
    10    10    20    1
    11    20    22    1
    12    22    23   ar
    13    23    24   ar
    14    24    25   ar
    15    25    28    1
    16    28    29    1
    17    29    30    1
    18    30    31    1
    19    31    32    1
    20    32    33    1
    21    25    26   ar
    22    26    27   ar
    23    10    11   ar
    24    11    12   ar
    25    12    13   ar
    26    13    15    1
    27    15    16    1
    28    16    17    1
    29    17    18    1
    30    18    19    1
    31    13    14   ar
    32    14     2   ar
    33    14     6   ar
    34    12     7   ar
    35    19    15    1
    36    27    22   ar
    37    33    28    1
    38    20    21    1
    39    31    34    1
@<TRIPOS>MOLECULE
*****
 34 39 0 0 0
SMALL
GASTEIGER

@<TRIPOS>ATOM
      1 CL         62.6939   91.2400    9.3121 Cl      1  UNL1       -0.0598
      2 C          63.5249   91.4262   10.5469 C.ar    1  UNL1        0.1540
      3 N          64.2793   92.7054   10.7574 N.ar    1  UNL1       -0.2310
      4 C          65.1103   92.8916   11.9922 C.ar    1  UNL1        0.0999
      5 C          65.1869   91.7985   13.0165 C.ar    1  UNL1        0.0223
      6 C          64.4325   90.5193   12.8060 C.ar    1  UNL1        0.0241
      7 C          64.3172   89.2741   13.6344 C.ar    1  UNL1        0.0550
      8 C          64.9172   88.8871   14.9536 C.ar    1  UNL1        0.1048
      9 N          64.6149   87.5443   15.5499 N.ar    1  UNL1       -0.2119
     10 C          63.7126   86.5886   14.8272 C.ar    1  UNL1        0.2231
     11 N          63.1126   86.9756   13.5080 N.ar    1  UNL1       -0.1961
     12 C          63.4149   88.3184   12.9116 C.ar    1  UNL1        0.1482
     13 N          62.9726   88.9729   11.6365 N.ar    1  UNL1       -0.3125
     14 C          63.6015   90.3331   11.5712 C.ar    1  UNL1        0.0898
     15 C          62.0613   88.3726   10.6073 C.3     1  UNL1        0.0869
     16 C          60.6357   88.7653   10.3556 C.3     1  UNL1        0.0226
     17 C          60.1089   87.9096    9.2419 C.3     1  UNL1        0.0020
     18 C          61.2090   86.9880    8.8052 C.3     1  UNL1        0.0020
     19 C          62.4156   87.2743    9.6492 C.3     1  UNL1        0.0226
     20 N          63.4103   85.2459   15.4236 N.pl3   1  UNL1       -0.2679
     21 H          63.2955   85.1541   16.3970 H       1  UNL1        0.1565
     22 C          63.2829   84.0429   14.5367 C.ar    1  UNL1        0.1344
     23 C          62.1808   83.0524   14.7700 C.ar    1  UNL1        0.0358
     24 C          62.0535   81.8494   13.8830 C.ar    1  UNL1        0.0190
     25 C          63.0282   81.6369   12.7629 C.ar    1  UNL1        0.0675
     26 C          64.1303   82.6273   12.5296 C.ar    1  UNL1        0.1147
     27 N          64.2576   83.8304   13.4166 N.ar    1  UNL1       -0.2277
     28 N          62.9009   80.4339   11.8760 N.pl3   1  UNL1       -0.3035
     29 C          62.5792   79.0947   12.4702 C.3     1  UNL1        0.1079
     30 C          62.4518   77.8917   11.5833 C.3     1  UNL1        0.0903
     31 N          62.6462   78.0279   10.1022 N.3     1  UNL1       -0.2946
     32 C          62.9679   79.3671    9.5080 C.3     1  UNL1        0.0903
     33 C          63.0953   80.5701   10.3948 C.3     1  UNL1        0.1079
     34 H          61.7831   77.7099    9.6615 H       1  UNL1        0.1233
@<TRIPOS>BOND
     1     1     2    1
     2     2     3   ar
     3     3     4   ar
     4     4     5   ar
     5     5     6   ar
     6     6     7   ar
     7     7     8   ar
     8     8     9   ar
     9     9    10   ar
    10    10    20    1
    11    20    22    1
    12    22    23   ar
    13    23    24   ar
    14    24    25   ar
    15    25    28    1
    16    28    29    1
    17    29    30    1
    18    30    31    1
    19    31    32    1
    20    32    33    1
    21    25    26   ar
    22    26    27   ar
    23    10    11   ar
    24    11    12   ar
    25    12    13   ar
    26    13    15    1
    27    15    16    1
    28    16    17    1
    29    17    18    1
    30    18    19    1
    31    13    14   ar
    32    14     2   ar
    33    14     6   ar
    34    12     7   ar
    35    19    15    1
    36    27    22   ar
    37    33    28    1
    38    20    21    1
    39    31    34    1
@<TRIPOS>MOLECULE
*****
 34 39 0 0 0
SMALL
GASTEIGER

@<TRIPOS>ATOM
      1 CL         63.6626   92.3335    9.3539 Cl      1  UNL1       -0.0598
      2 C          64.4406   92.7020   10.5822 C.ar    1  UNL1        0.1540
      3 N          65.3580   93.8886   10.5611 N.ar    1  UNL1       -0.2310
      4 C          66.1360   94.2570   11.7895 C.ar    1  UNL1        0.0999
      5 C          65.9967   93.4389   13.0390 C.ar    1  UNL1        0.0223
      6 C          65.0794   92.2523   13.0601 C.ar    1  UNL1        0.0241
      7 C          64.7396   91.2654   14.1373 C.ar    1  UNL1        0.0550
      8 C          65.2022   91.1312   15.5579 C.ar    1  UNL1        0.1048
      9 N          64.6769   90.0186   16.4159 N.ar    1  UNL1       -0.2119
     10 C          63.6888   89.0402   15.8533 C.ar    1  UNL1        0.2231
     11 N          63.2262   89.1743   14.4328 N.ar    1  UNL1       -0.1961
     12 C          63.7516   90.2869   13.5748 C.ar    1  UNL1        0.1482
     13 N          63.4808   90.6692   12.1498 N.ar    1  UNL1       -0.3125
     14 C          64.3014   91.8839   11.8317 C.ar    1  UNL1        0.0898
     15 C          62.5523   89.9611   11.2083 C.3     1  UNL1        0.0869
     16 C          62.8174   88.6509   10.5277 C.3     1  UNL1        0.0226
     17 C          61.6247   88.3189    9.6808 C.3     1  UNL1        0.0020
     18 C          60.6224   89.4239    9.8379 C.3     1  UNL1        0.0020
     19 C          61.1959   90.4388   10.7820 C.3     1  UNL1        0.0226
     20 N          63.1635   87.9276   16.7113 N.pl3   1  UNL1       -0.2679
     21 H          62.9095   88.1046   17.6459 H       1  UNL1        0.1565
     22 C          63.0251   86.5454   16.1454 C.ar    1  UNL1        0.1344
     23 C          64.1022   85.9840   15.2654 C.ar    1  UNL1        0.0358
     24 C          63.9638   84.6017   14.6994 C.ar    1  UNL1        0.0190
     25 C          62.7482   83.7810   15.0134 C.ar    1  UNL1        0.0675
     26 C          61.6710   84.3424   15.8934 C.ar    1  UNL1        0.1147
     27 N          61.8094   85.7247   16.4594 N.ar    1  UNL1       -0.2277
     28 N          62.6097   82.3987   14.4475 N.pl3   1  UNL1       -0.3035
     29 C          61.2859   81.6954   14.5013 C.3     1  UNL1        0.1079
     30 C          61.1475   80.3132   13.9354 C.3     1  UNL1        0.0903
     31 N          62.3327   79.6344   13.3156 N.3     1  UNL1       -0.2946
     32 C          63.6565   80.3377   13.2618 C.3     1  UNL1        0.0903
     33 C          63.7950   81.7198   13.8277 C.3     1  UNL1        0.1079
     34 H          62.0764   79.4151   12.3530 H       1  UNL1        0.1233
@<TRIPOS>BOND
     1     1     2    1
     2     2     3   ar
     3     3     4   ar
     4     4     5   ar
     5     5     6   ar
     6     6     7   ar
     7     7     8   ar
     8     8     9   ar
     9     9    10   ar
    10    10    20    1
    11    20    22    1
    12    22    23   ar
    13    23    24   ar
    14    24    25   ar
    15    25    28    1
    16    28    29    1
    17    29    30    1
    18    30    31    1
    19    31    32    1
    20    32    33    1
    21    25    26   ar
    22    26    27   ar
    23    10    11   ar
    24    11    12   ar
    25    12    13   ar
    26    13    15    1
    27    15    16    1
    28    16    17    1
    29    17    18    1
    30    18    19    1
    31    13    14   ar
    32    14     2   ar
    33    14     6   ar
    34    12     7   ar
    35    19    15    1
    36    27    22   ar
    37    33    28    1
    38    20    21    1
    39    31    34    1
@<TRIPOS>MOLECULE
*****
 34 39 0 0 0
SMALL
GASTEIGER

@<TRIPOS>ATOM
      1 CL         63.5356   92.9827    2.4501 Cl      1  UNL1       -0.0598
      2 C          62.0556   92.7531    2.5325 C.ar    1  UNL1        0.1540
      3 N          61.4703   92.0538    3.7234 N.ar    1  UNL1       -0.2310
      4 C          59.9902   91.8241    3.8058 C.ar    1  UNL1        0.0999
      5 C          59.0955   92.2938    2.6973 C.ar    1  UNL1        0.0223
      6 C          59.6808   92.9931    1.5064 C.ar    1  UNL1        0.0241
      7 C          59.0536   93.5641    0.2692 C.ar    1  UNL1        0.0550
      8 C          57.6289   93.6288   -0.1955 C.ar    1  UNL1        0.1048
      9 N          57.2965   94.2761   -1.5072 N.ar    1  UNL1       -0.2119
     10 C          58.3889   94.8585   -2.3543 C.ar    1  UNL1        0.2231
     11 N          59.8136   94.7938   -1.8895 N.ar    1  UNL1       -0.1961
     12 C          60.1459   94.1466   -0.5778 C.ar    1  UNL1        0.1482
     13 N          61.4483   93.9356    0.1359 N.ar    1  UNL1       -0.3125
     14 C          61.1609   93.2228    1.4240 C.ar    1  UNL1        0.0898
     15 C          62.8007   94.3626   -0.3527 C.3     1  UNL1        0.0869
     16 C          63.5384   93.7835   -1.5233 C.3     1  UNL1        0.0226
     17 C          64.8465   94.5065   -1.6506 C.3     1  UNL1        0.0020
     18 C          64.9172   95.5325   -0.5586 C.3     1  UNL1        0.0020
     19 C          63.6528   95.4435    0.2434 C.3     1  UNL1        0.0226
     20 N          58.0565   95.5058   -3.6660 N.pl3   1  UNL1       -0.2679
     21 H          58.7788   95.7986   -4.2675 H       1  UNL1        0.1565
     22 C          56.6236   95.7068   -4.0613 C.ar    1  UNL1        0.1344
     23 C          56.1083   95.1157   -5.3399 C.ar    1  UNL1        0.0358
     24 C          54.6753   95.3168   -5.7352 C.ar    1  UNL1        0.0190
     25 C          53.7577   96.1090   -4.8518 C.ar    1  UNL1        0.0675
     26 C          54.2730   96.7002   -3.5732 C.ar    1  UNL1        0.1147
     27 N          55.7060   96.4991   -3.1779 N.ar    1  UNL1       -0.2277
     28 N          52.3247   96.3101   -5.2471 N.pl3   1  UNL1       -0.3035
     29 C          51.2997   96.6479   -4.2053 C.3     1  UNL1        0.1079
     30 C          49.8668   96.8490   -4.6005 C.3     1  UNL1        0.0903
     31 N          49.4589   96.7124   -6.0374 N.3     1  UNL1       -0.2946
     32 C          50.4839   96.3746   -7.0792 C.3     1  UNL1        0.0903
     33 C          51.9168   96.1735   -6.6841 C.3     1  UNL1        0.1079
     34 H          49.0429   97.6025   -6.3114 H       1  UNL1        0.1233
@<TRIPOS>BOND
     1     1     2    1
     2     2     3   ar
     3     3     4   ar
     4     4     5   ar
     5     5     6   ar
     6     6     7   ar
     7     7     8   ar
     8     8     9   ar
     9     9    10   ar
    10    10    20    1
    11    20    22    1
    12    22    23   ar
    13    23    24   ar
    14    24    25   ar
    15    25    28    1
    16    28    29    1
    17    29    30    1
    18    30    31    1
    19    31    32    1
    20    32    33    1
    21    25    26   ar
    22    26    27   ar
    23    10    11   ar
    24    11    12   ar
    25    12    13   ar
    26    13    15    1
    27    15    16    1
    28    16    17    1
    29    17    18    1
    30    18    19    1
    31    13    14   ar
    32    14     2   ar
    33    14     6   ar
    34    12     7   ar
    35    19    15    1
    36    27    22   ar
    37    33    28    1
    38    20    21    1
    39    31    34    1
@<TRIPOS>MOLECULE
*****
 34 39 0 0 0
SMALL
GASTEIGER

@<TRIPOS>ATOM
      1 CL         44.4754   80.9256   16.6994 Cl      1  UNL1       -0.0598
      2 C          44.8387   80.7603   18.1453 C.ar    1  UNL1        0.1540
      3 N          45.1527   81.9648   18.9823 N.ar    1  UNL1       -0.2310
      4 C          45.5160   81.7995   20.4282 C.ar    1  UNL1        0.0999
      5 C          45.5653   80.4296   21.0372 C.ar    1  UNL1        0.0223
      6 C          45.2513   79.2250   20.2003 C.ar    1  UNL1        0.0241
      7 C          45.2183   77.7603   20.5219 C.ar    1  UNL1        0.0550
      8 C          45.4880   77.0047   21.7893 C.ar    1  UNL1        0.1048
      9 N          45.3740   75.5091   21.8096 N.ar    1  UNL1       -0.2119
     10 C          44.9903   74.7692   20.5625 C.ar    1  UNL1        0.2231
     11 N          44.7205   75.5248   19.2951 N.ar    1  UNL1       -0.1961
     12 C          44.8345   77.0204   19.2748 C.ar    1  UNL1        0.1482
     13 N          44.6305   78.0278   18.1824 N.ar    1  UNL1       -0.3125
     14 C          44.8880   79.3904   18.7544 C.ar    1  UNL1        0.0898
     15 C          44.2377   77.7258   16.7666 C.3     1  UNL1        0.0869
     16 C          44.0066   78.7352   15.6813 C.3     1  UNL1        0.0226
     17 C          43.6332   77.9946   14.4315 C.3     1  UNL1        0.0020
     18 C          43.6335   76.5276   14.7442 C.3     1  UNL1        0.0020
     19 C          44.0071   76.3615   16.1875 C.3     1  UNL1        0.0226
     20 N          44.8763   73.2737   20.5827 N.pl3   1  UNL1       -0.2679
     21 H          44.6849   72.8060   21.4277 H       1  UNL1        0.1565
     22 C          45.0538   72.4908   19.3157 C.ar    1  UNL1        0.1344
     23 C          46.4288   72.0965   18.8641 C.ar    1  UNL1        0.0358
     24 C          46.6063   71.3136   17.5969 C.ar    1  UNL1        0.0190
     25 C          45.4088   70.9249   16.7814 C.ar    1  UNL1        0.0675
     26 C          44.0339   71.3192   17.2331 C.ar    1  UNL1        0.1147
     27 N          43.8563   72.1022   18.5002 N.ar    1  UNL1       -0.2277
     28 N          45.5863   70.1420   15.5144 N.pl3   1  UNL1       -0.3035
     29 C          44.9024   70.5872   14.2557 C.3     1  UNL1        0.1079
     30 C          45.0799   69.8043   12.9886 C.3     1  UNL1        0.0903
     31 N          45.9412   68.5763   12.9802 N.3     1  UNL1       -0.2946
     32 C          46.6250   68.1312   14.2388 C.3     1  UNL1        0.0903
     33 C          46.4476   68.9140   15.5059 C.3     1  UNL1        0.1079
     34 H          46.6731   68.7348   12.2876 H       1  UNL1        0.1233
@<TRIPOS>BOND
     1     1     2    1
     2     2     3   ar
     3     3     4   ar
     4     4     5   ar
     5     5     6   ar
     6     6     7   ar
     7     7     8   ar
     8     8     9   ar
     9     9    10   ar
    10    10    20    1
    11    20    22    1
    12    22    23   ar
    13    23    24   ar
    14    24    25   ar
    15    25    28    1
    16    28    29    1
    17    29    30    1
    18    30    31    1
    19    31    32    1
    20    32    33    1
    21    25    26   ar
    22    26    27   ar
    23    10    11   ar
    24    11    12   ar
    25    12    13   ar
    26    13    15    1
    27    15    16    1
    28    16    17    1
    29    17    18    1
    30    18    19    1
    31    13    14   ar
    32    14     2   ar
    33    14     6   ar
    34    12     7   ar
    35    19    15    1
    36    27    22   ar
    37    33    28    1
    38    20    21    1
    39    31    34    1
