@<TRIPOS>MOLECULE
*****
 28 30 0 0 0
SMALL
GASTEIGER

@<TRIPOS>ATOM
      1 C          63.8394   90.0293   12.9013 C.ar    1  UNL1        0.1730
      2 C          64.5666   91.3326   12.7509 C.ar    1  UNL1        0.0401
      3 C          64.4533   92.1117   11.4742 C.ar    1  UNL1        0.0039
      4 C          63.6129   91.5876   10.3478 C.ar    1  UNL1        0.0034
      5 C          62.8857   90.2844   10.4981 C.ar    1  UNL1        0.0406
      6 C          62.9989   89.5052   11.7748 C.ar    1  UNL1        0.1789
      7 C          65.1806   93.4151   11.3239 C.2     1  UNL1        0.0113
      8 C          66.4266   93.4870   10.4919 C.2     1  UNL1        0.0873
      9 S          67.0617   92.3455    9.7547 S.3     1  UNL1       -0.0254
     10 C          68.2840   92.8660    9.0582 C.2     1  UNL1        0.2832
     11 O          69.2213   92.0641    8.2048 O.2     1  UNL1       -0.2622
     12 N          68.4043   94.3294    9.3650 N.am    1  UNL1       -0.2425
     13 C          67.2564   94.7132   10.2511 C.2     1  UNL1        0.2583
     14 O          66.9859   96.0827   10.7999 O.2     1  UNL1       -0.2692
     15 H          69.1124   94.9321    9.0416 H       1  UNL1        0.1587
     16 C          63.4576   89.8421   15.4643 C.3     1  UNL1        0.2526
     17 O          63.9527   89.2502   14.1780 O.3     1  UNL1       -0.4684
     18 O          62.2717   88.2019   11.9251 O.3     1  UNL1       -0.4505
     19 C          61.6036   87.5745   10.7377 C.ar    1  UNL1        0.1493
     20 C          62.2754   86.4503   10.0063 C.ar    1  UNL1        0.0374
     21 C          61.6072   85.8230    8.8188 C.ar    1  UNL1        0.0031
     22 C          60.2675   86.3198    8.3627 C.ar    1  UNL1        0.0001
     23 C          59.5957   87.4441    9.0941 C.ar    1  UNL1        0.0069
     24 C          60.2638   88.0714   10.2815 C.ar    1  UNL1        0.1058
     25 C          59.5920   89.1956   11.0129 C.3     1  UNL1        0.4214
     26 F          58.9203   90.3199   11.7443 F       1  UNL1       -0.1657
     27 F          59.2972   88.2739   12.1590 F       1  UNL1       -0.1657
     28 F          59.8869   90.1174    9.8668 F       1  UNL1       -0.1657
@<TRIPOS>BOND
     1    16    17    1
     2    17     1    1
     3     1     2   ar
     4     2     3   ar
     5     3     7    1
     6     7     8    2
     7     8     9    1
     8     9    10    1
     9    10    11    2
    10    10    12   am
    11    12    13   am
    12    13    14    2
    13     3     4   ar
    14     4     5   ar
    15     5     6   ar
    16     6    18    1
    17    18    19    1
    18    19    20   ar
    19    20    21   ar
    20    21    22   ar
    21    22    23   ar
    22    23    24   ar
    23    24    25    1
    24    25    26    1
    25    25    27    1
    26    25    28    1
    27     6     1   ar
    28    24    19   ar
    29    13     8    1
    30    12    15    1
@<TRIPOS>MOLECULE
*****
 28 30 0 0 0
SMALL
GASTEIGER

@<TRIPOS>ATOM
      1 C          62.3263   89.2476   10.4332 C.ar    1  UNL1        0.1730
      2 C          63.0176   90.5787   10.4494 C.ar    1  UNL1        0.0401
      3 C          63.8453   90.9796   11.6343 C.ar    1  UNL1        0.0039
      4 C          63.9818   90.0494   12.8031 C.ar    1  UNL1        0.0034
      5 C          63.2906   88.7183   12.7869 C.ar    1  UNL1        0.0406
      6 C          62.4628   88.3174   11.6020 C.ar    1  UNL1        0.1789
      7 C          64.5366   92.3108   11.6505 C.2     1  UNL1        0.0113
      8 C          65.5762   92.6034   12.6913 C.2     1  UNL1        0.0873
      9 S          66.0272   91.6686   13.7743 S.3     1  UNL1       -0.0254
     10 C          67.0772   92.3697   14.5843 C.2     1  UNL1        0.2832
     11 O          67.8019   91.8022   15.7687 O.2     1  UNL1       -0.2622
     12 N          67.2751   93.7378   14.0020 N.am    1  UNL1       -0.2425
     13 C          66.3475   93.8822   12.8321 C.2     1  UNL1        0.2583
     14 O          66.2145   95.0930   11.9566 O.2     1  UNL1       -0.2692
     15 H          67.9035   94.4209   14.3300 H       1  UNL1        0.1587
     16 C          60.0233   89.1175    9.2378 C.3     1  UNL1        0.2526
     17 O          61.4986   88.8466    9.2483 O.3     1  UNL1       -0.4684
     18 O          61.7716   86.9862   11.5859 O.3     1  UNL1       -0.4505
     19 C          62.5764   85.7244   11.4861 C.ar    1  UNL1        0.1493
     20 C          63.1924   85.1283   12.7171 C.ar    1  UNL1        0.0374
     21 C          63.9972   83.8664   12.6172 C.ar    1  UNL1        0.0031
     22 C          64.1860   83.2006   11.2864 C.ar    1  UNL1        0.0001
     23 C          63.5701   83.7967   10.0555 C.ar    1  UNL1        0.0069
     24 C          62.7653   85.0585   10.1552 C.ar    1  UNL1        0.1058
     25 C          62.1493   85.6545    8.9243 C.3     1  UNL1        0.4214
     26 F          61.5333   86.2506    7.6933 F       1  UNL1       -0.1657
     27 F          60.7990   85.6044    9.5757 F       1  UNL1       -0.1657
     28 F          63.4996   85.7046    8.2729 F       1  UNL1       -0.1657
@<TRIPOS>BOND
     1    16    17    1
     2    17     1    1
     3     1     2   ar
     4     2     3   ar
     5     3     7    1
     6     7     8    2
     7     8     9    1
     8     9    10    1
     9    10    11    2
    10    10    12   am
    11    12    13   am
    12    13    14    2
    13     3     4   ar
    14     4     5   ar
    15     5     6   ar
    16     6    18    1
    17    18    19    1
    18    19    20   ar
    19    20    21   ar
    20    21    22   ar
    21    22    23   ar
    22    23    24   ar
    23    24    25    1
    24    25    26    1
    25    25    27    1
    26    25    28    1
    27     6     1   ar
    28    24    19   ar
    29    13     8    1
    30    12    15    1
@<TRIPOS>MOLECULE
*****
 28 30 0 0 0
SMALL
GASTEIGER

@<TRIPOS>ATOM
      1 C          63.2918   88.7915   12.4934 C.ar    1  UNL1        0.1730
      2 C          63.9220   90.1339   12.2680 C.ar    1  UNL1        0.0401
      3 C          63.6430   90.8905   11.0032 C.ar    1  UNL1        0.0039
      4 C          62.7339   90.3047    9.9638 C.ar    1  UNL1        0.0034
      5 C          62.1037   88.9624   10.1893 C.ar    1  UNL1        0.0406
      6 C          62.3827   88.2058   11.4541 C.ar    1  UNL1        0.1789
      7 C          64.2732   92.2329   10.7777 C.2     1  UNL1        0.0113
      8 C          65.2032   92.8070   11.8052 C.2     1  UNL1        0.0873
      9 S          65.5954   92.1585   13.0996 S.3     1  UNL1       -0.0254
     10 C          66.5388   93.0810   13.8131 C.2     1  UNL1        0.2832
     11 O          67.1790   92.8290   15.1460 O.2     1  UNL1       -0.2622
     12 N          66.7296   94.2996   12.9596 N.am    1  UNL1       -0.2425
     13 C          65.9042   94.1302   11.7187 C.2     1  UNL1        0.2583
     14 O          65.7983   95.1119   10.5894 O.2     1  UNL1       -0.2692
     15 H          67.2970   95.0745   13.1759 H       1  UNL1        0.1587
     16 C          64.3389   88.6880   14.8689 C.3     1  UNL1        0.2526
     17 O          63.5708   88.0350   13.7583 O.3     1  UNL1       -0.4684
     18 O          61.7524   86.8633   11.6796 O.3     1  UNL1       -0.4505
     19 C          62.5543   85.6134   11.4686 C.ar    1  UNL1        0.1493
     20 C          63.1903   84.9237   12.6390 C.ar    1  UNL1        0.0374
     21 C          63.9922   83.6737   12.4279 C.ar    1  UNL1        0.0031
     22 C          64.1581   83.1134   11.0465 C.ar    1  UNL1        0.0001
     23 C          63.5222   83.8031    9.8760 C.ar    1  UNL1        0.0069
     24 C          62.7203   85.0530   10.0870 C.ar    1  UNL1        0.1058
     25 C          62.0843   85.7427    8.9166 C.3     1  UNL1        0.4214
     26 F          61.4484   86.4323    7.7461 F       1  UNL1       -0.1657
     27 F          60.7418   85.6210    9.5744 F       1  UNL1       -0.1657
     28 F          63.4269   85.8643    8.2588 F       1  UNL1       -0.1657
@<TRIPOS>BOND
     1    16    17    1
     2    17     1    1
     3     1     2   ar
     4     2     3   ar
     5     3     7    1
     6     7     8    2
     7     8     9    1
     8     9    10    1
     9    10    11    2
    10    10    12   am
    11    12    13   am
    12    13    14    2
    13     3     4   ar
    14     4     5   ar
    15     5     6   ar
    16     6    18    1
    17    18    19    1
    18    19    20   ar
    19    20    21   ar
    20    21    22   ar
    21    22    23   ar
    22    23    24   ar
    23    24    25    1
    24    25    26    1
    25    25    27    1
    26    25    28    1
    27     6     1   ar
    28    24    19   ar
    29    13     8    1
    30    12    15    1
@<TRIPOS>MOLECULE
*****
 28 30 0 0 0
SMALL
GASTEIGER

@<TRIPOS>ATOM
      1 C          63.4778   89.7910   12.5656 C.ar    1  UNL1        0.1730
      2 C          64.2278   91.0900   12.5506 C.ar    1  UNL1        0.0401
      3 C          64.2193   91.9467   11.3194 C.ar    1  UNL1        0.0039
      4 C          63.4608   91.5046   10.1032 C.ar    1  UNL1        0.0034
      5 C          62.7109   90.2056   10.1182 C.ar    1  UNL1        0.0406
      6 C          62.7194   89.3488   11.3494 C.ar    1  UNL1        0.1789
      7 C          64.9692   93.2458   11.3044 C.2     1  UNL1        0.0113
      8 C          66.2563   93.3599   10.5426 C.2     1  UNL1        0.0873
      9 S          66.9135   92.2669    9.7530 S.3     1  UNL1       -0.0254
     10 C          68.1756   92.8186    9.1590 C.2     1  UNL1        0.2832
     11 O          69.1446   92.0680    8.2943 O.2     1  UNL1       -0.2622
     12 N          68.2985   94.2526    9.5815 N.am    1  UNL1       -0.2425
     13 C          67.1123   94.5871   10.4366 C.2     1  UNL1        0.2583
     14 O          66.8315   95.9157   11.0739 O.2     1  UNL1       -0.2692
     15 H          69.0293   94.8664    9.3400 H       1  UNL1        0.1587
     16 C          63.7126   89.5571   15.1424 C.3     1  UNL1        0.2526
     17 O          63.4864   88.9342   13.7968 O.3     1  UNL1       -0.4684
     18 O          61.9694   88.0498   11.3643 O.3     1  UNL1       -0.4505
     19 C          61.1639   87.6351   10.1689 C.ar    1  UNL1        0.1493
     20 C          60.1073   88.5490    9.6226 C.ar    1  UNL1        0.0374
     21 C          59.3018   88.1342    8.4272 C.ar    1  UNL1        0.0031
     22 C          59.5528   86.8055    7.7780 C.ar    1  UNL1        0.0001
     23 C          60.6093   85.8915    8.3243 C.ar    1  UNL1        0.0069
     24 C          61.4149   86.3063    9.5197 C.ar    1  UNL1        0.1058
     25 C          62.4714   85.3923   10.0660 C.3     1  UNL1        0.4214
     26 F          63.5279   84.4783   10.6123 F       1  UNL1       -0.1657
     27 F          61.6319   85.1506   11.2853 F       1  UNL1       -0.1657
     28 F          63.3109   85.6339    8.8466 F       1  UNL1       -0.1657
@<TRIPOS>BOND
     1    16    17    1
     2    17     1    1
     3     1     2   ar
     4     2     3   ar
     5     3     7    1
     6     7     8    2
     7     8     9    1
     8     9    10    1
     9    10    11    2
    10    10    12   am
    11    12    13   am
    12    13    14    2
    13     3     4   ar
    14     4     5   ar
    15     5     6   ar
    16     6    18    1
    17    18    19    1
    18    19    20   ar
    19    20    21   ar
    20    21    22   ar
    21    22    23   ar
    22    23    24   ar
    23    24    25    1
    24    25    26    1
    25    25    27    1
    26    25    28    1
    27     6     1   ar
    28    24    19   ar
    29    13     8    1
    30    12    15    1
@<TRIPOS>MOLECULE
*****
 28 30 0 0 0
SMALL
GASTEIGER

@<TRIPOS>ATOM
      1 C          62.3630   89.5130   11.2229 C.ar    1  UNL1        0.1730
      2 C          63.0738   90.7526   11.6791 C.ar    1  UNL1        0.0401
      3 C          64.0191   90.6902   12.8421 C.ar    1  UNL1        0.0039
      4 C          64.2538   89.3882   13.5488 C.ar    1  UNL1        0.0034
      5 C          63.5431   88.1485   13.0926 C.ar    1  UNL1        0.0406
      6 C          62.5977   88.2110   11.9297 C.ar    1  UNL1        0.1789
      7 C          64.7298   91.9300   13.2982 C.2     1  UNL1        0.0113
      8 C          65.5384   92.7328   12.3227 C.2     1  UNL1        0.0873
      9 S          65.7274   92.4217   10.8676 S.3     1  UNL1       -0.0254
     10 C          66.6057   93.4844   10.2766 C.2     1  UNL1        0.2832
     11 O          67.0518   93.5650    8.8467 O.2     1  UNL1       -0.2622
     12 N          66.9596   94.4523   11.3665 N.am    1  UNL1       -0.2425
     13 C          66.2999   93.9878   12.6310 C.2     1  UNL1        0.2583
     14 O          66.3866   94.6603   13.9690 O.2     1  UNL1       -0.2692
     15 H          67.5254   95.2520   11.2690 H       1  UNL1        0.1587
     16 C          60.0292   90.1102   10.2500 C.3     1  UNL1        0.2526
     17 O          61.4177   89.5754   10.0600 O.3     1  UNL1       -0.4684
     18 O          61.8870   86.9712   11.4735 O.3     1  UNL1       -0.4505
     19 C          62.6423   85.6831   11.3311 C.ar    1  UNL1        0.1493
     20 C          63.2501   85.0326   12.5383 C.ar    1  UNL1        0.0374
     21 C          64.0054   83.7445   12.3958 C.ar    1  UNL1        0.0031
     22 C          64.1529   83.1069   11.0461 C.ar    1  UNL1        0.0001
     23 C          63.5451   83.7574    9.8389 C.ar    1  UNL1        0.0069
     24 C          62.7898   85.0455    9.9813 C.ar    1  UNL1        0.1058
     25 C          62.1820   85.6960    8.7741 C.3     1  UNL1        0.4214
     26 F          61.5742   86.3465    7.5669 F       1  UNL1       -0.1657
     27 F          63.5417   85.8103    8.1511 F       1  UNL1       -0.1657
     28 F          60.8223   85.5817    9.3971 F       1  UNL1       -0.1657
@<TRIPOS>BOND
     1    16    17    1
     2    17     1    1
     3     1     2   ar
     4     2     3   ar
     5     3     7    1
     6     7     8    2
     7     8     9    1
     8     9    10    1
     9    10    11    2
    10    10    12   am
    11    12    13   am
    12    13    14    2
    13     3     4   ar
    14     4     5   ar
    15     5     6   ar
    16     6    18    1
    17    18    19    1
    18    19    20   ar
    19    20    21   ar
    20    21    22   ar
    21    22    23   ar
    22    23    24   ar
    23    24    25    1
    24    25    26    1
    25    25    27    1
    26    25    28    1
    27     6     1   ar
    28    24    19   ar
    29    13     8    1
    30    12    15    1
@<TRIPOS>MOLECULE
*****
 28 30 0 0 0
SMALL
GASTEIGER

@<TRIPOS>ATOM
      1 C          62.1238   88.5452   10.3397 C.ar    1  UNL1        0.1730
      2 C          62.6545   89.9217   10.0685 C.ar    1  UNL1        0.0401
      3 C          63.4890   90.6206   11.1005 C.ar    1  UNL1        0.0039
      4 C          63.7927   89.9430   12.4038 C.ar    1  UNL1        0.0034
      5 C          63.2620   88.5666   12.6751 C.ar    1  UNL1        0.0406
      6 C          62.4275   87.8677   11.6430 C.ar    1  UNL1        0.1789
      7 C          64.0197   91.9971   10.8292 C.2     1  UNL1        0.0113
      8 C          65.1158   92.5603   11.6844 C.2     1  UNL1        0.0873
      9 S          65.7763   91.8686   12.8400 S.3     1  UNL1       -0.0254
     10 C          66.8125   92.7949   13.4040 C.2     1  UNL1        0.2832
     11 O          67.7110   92.5074   14.5702 O.2     1  UNL1       -0.2622
     12 N          66.7926   94.0592   12.5970 N.am    1  UNL1       -0.2425
     13 C          65.7439   93.9142   11.5343 C.2     1  UNL1        0.2583
     14 O          65.3862   94.9426   10.5025 O.2     1  UNL1       -0.2692
     15 H          67.3668   94.8460   12.7398 H       1  UNL1        0.1587
     16 C          60.1644   88.5747    8.6338 C.3     1  UNL1        0.2526
     17 O          61.2893   87.8463    9.3077 O.3     1  UNL1       -0.4684
     18 O          61.8968   86.4911   11.9143 O.3     1  UNL1       -0.4505
     19 C          62.7203   85.2873   11.5642 C.ar    1  UNL1        0.1493
     20 C          62.8909   84.8869   10.1288 C.ar    1  UNL1        0.0374
     21 C          63.7145   83.6830    9.7787 C.ar    1  UNL1        0.0031
     22 C          64.3675   82.8796   10.8641 C.ar    1  UNL1        0.0001
     23 C          64.1970   83.2801   12.2996 C.ar    1  UNL1        0.0069
     24 C          63.3734   84.4839   12.6497 C.ar    1  UNL1        0.1058
     25 C          63.2029   84.8843   14.0851 C.3     1  UNL1        0.4214
     26 F          63.0323   85.2847   15.5206 F       1  UNL1       -0.1657
     27 F          62.0238   83.9644   14.2017 F       1  UNL1       -0.1657
     28 F          64.3819   85.8043   13.9686 F       1  UNL1       -0.1657
@<TRIPOS>BOND
     1    16    17    1
     2    17     1    1
     3     1     2   ar
     4     2     3   ar
     5     3     7    1
     6     7     8    2
     7     8     9    1
     8     9    10    1
     9    10    11    2
    10    10    12   am
    11    12    13   am
    12    13    14    2
    13     3     4   ar
    14     4     5   ar
    15     5     6   ar
    16     6    18    1
    17    18    19    1
    18    19    20   ar
    19    20    21   ar
    20    21    22   ar
    21    22    23   ar
    22    23    24   ar
    23    24    25    1
    24    25    26    1
    25    25    27    1
    26    25    28    1
    27     6     1   ar
    28    24    19   ar
    29    13     8    1
    30    12    15    1
@<TRIPOS>MOLECULE
*****
 28 30 0 0 0
SMALL
GASTEIGER

@<TRIPOS>ATOM
      1 C          62.8673   87.8925   12.3698 C.ar    1  UNL1        0.1730
      2 C          63.7409   88.9234   13.0210 C.ar    1  UNL1        0.0401
      3 C          63.6029   90.3690   12.6453 C.ar    1  UNL1        0.0039
      4 C          62.5913   90.7837   11.6183 C.ar    1  UNL1        0.0034
      5 C          61.7177   89.7528   10.9672 C.ar    1  UNL1        0.0406
      6 C          61.8557   88.3072   11.3429 C.ar    1  UNL1        0.1789
      7 C          64.4766   91.3999   13.2965 C.2     1  UNL1        0.0113
      8 C          65.3027   92.3244   12.4522 C.2     1  UNL1        0.0873
      9 S          65.3581   92.3366   10.9533 S.3     1  UNL1       -0.0254
     10 C          66.3082   93.4187   10.5333 C.2     1  UNL1        0.2832
     11 O          66.6640   93.7806    9.1217 O.2     1  UNL1       -0.2622
     12 N          66.8400   94.0753   11.7726 N.am    1  UNL1       -0.2425
     13 C          66.2186   93.3990   12.9586 C.2     1  UNL1        0.2583
     14 O          66.4691   93.7378   14.3982 O.2     1  UNL1       -0.2692
     15 H          67.4839   94.8195   11.8025 H       1  UNL1        0.1587
     16 C          63.9076   86.0486   13.8757 C.3     1  UNL1        0.2526
     17 O          63.0053   86.4469   12.7456 O.3     1  UNL1       -0.4684
     18 O          60.9820   87.2763   10.6917 O.3     1  UNL1       -0.4505
     19 C          61.5222   86.4324    9.5755 C.ar    1  UNL1        0.1493
     20 C          62.7043   85.5404    9.8141 C.ar    1  UNL1        0.0374
     21 C          63.2445   84.6965    8.6978 C.ar    1  UNL1        0.0031
     22 C          62.6024   84.7444    7.3430 C.ar    1  UNL1        0.0001
     23 C          61.4203   85.6364    7.1044 C.ar    1  UNL1        0.0069
     24 C          60.8801   86.4803    8.2206 C.ar    1  UNL1        0.1058
     25 C          59.6980   87.3723    7.9821 C.3     1  UNL1        0.4214
     26 F          58.5158   88.2642    7.7435 F       1  UNL1       -0.1657
     27 F          60.5668   88.5781    8.1847 F       1  UNL1       -0.1657
     28 F          58.8291   86.1665    7.7794 F       1  UNL1       -0.1657
@<TRIPOS>BOND
     1    16    17    1
     2    17     1    1
     3     1     2   ar
     4     2     3   ar
     5     3     7    1
     6     7     8    2
     7     8     9    1
     8     9    10    1
     9    10    11    2
    10    10    12   am
    11    12    13   am
    12    13    14    2
    13     3     4   ar
    14     4     5   ar
    15     5     6   ar
    16     6    18    1
    17    18    19    1
    18    19    20   ar
    19    20    21   ar
    20    21    22   ar
    21    22    23   ar
    22    23    24   ar
    23    24    25    1
    24    25    26    1
    25    25    27    1
    26    25    28    1
    27     6     1   ar
    28    24    19   ar
    29    13     8    1
    30    12    15    1
@<TRIPOS>MOLECULE
*****
 28 30 0 0 0
SMALL
GASTEIGER

@<TRIPOS>ATOM
      1 C          63.2788   88.7758   12.6369 C.ar    1  UNL1        0.1730
      2 C          63.7780   90.1507   12.3045 C.ar    1  UNL1        0.0401
      3 C          63.4795   90.7531   10.9636 C.ar    1  UNL1        0.0039
      4 C          62.6818   89.9807    9.9551 C.ar    1  UNL1        0.0034
      5 C          62.1827   88.6059   10.2875 C.ar    1  UNL1        0.0406
      6 C          62.4812   88.0034   11.6284 C.ar    1  UNL1        0.1789
      7 C          63.9787   92.1281   10.6313 C.2     1  UNL1        0.0113
      8 C          65.1064   92.7271   11.4184 C.2     1  UNL1        0.0873
      9 S          65.8296   92.0747   12.5591 S.3     1  UNL1       -0.0254
     10 C          66.8790   93.0281   13.0487 C.2     1  UNL1        0.2832
     11 O          67.8352   92.7828   14.1781 O.2     1  UNL1       -0.2622
     12 N          66.8044   94.2698   12.2105 N.am    1  UNL1       -0.2425
     13 C          65.7088   94.0838   11.2030 C.2     1  UNL1        0.2583
     14 O          65.2894   95.0797   10.1626 O.2     1  UNL1       -0.2692
     15 H          67.3744   95.0670   12.3051 H       1  UNL1        0.1587
     16 C          64.3235   88.9683   15.0078 C.3     1  UNL1        0.2526
     17 O          63.5773   88.1733   13.9777 O.3     1  UNL1       -0.4684
     18 O          61.9820   86.6284   11.9607 O.3     1  UNL1       -0.4505
     19 C          62.7290   85.4217   11.4753 C.ar    1  UNL1        0.1493
     20 C          62.8003   85.1242   10.0069 C.ar    1  UNL1        0.0374
     21 C          63.5474   83.9174    9.5215 C.ar    1  UNL1        0.0031
     22 C          64.2231   83.0080   10.5046 C.ar    1  UNL1        0.0001
     23 C          64.1517   83.3055   11.9731 C.ar    1  UNL1        0.0069
     24 C          63.4047   84.5123   12.4585 C.ar    1  UNL1        0.1058
     25 C          63.3334   84.8097   13.9270 C.3     1  UNL1        0.4214
     26 F          63.2620   85.1071   15.3954 F       1  UNL1       -0.1657
     27 F          64.7227   85.3734   13.8803 F       1  UNL1       -0.1657
     28 F          61.9441   84.2460   13.9736 F       1  UNL1       -0.1657
@<TRIPOS>BOND
     1    16    17    1
     2    17     1    1
     3     1     2   ar
     4     2     3   ar
     5     3     7    1
     6     7     8    2
     7     8     9    1
     8     9    10    1
     9    10    11    2
    10    10    12   am
    11    12    13   am
    12    13    14    2
    13     3     4   ar
    14     4     5   ar
    15     5     6   ar
    16     6    18    1
    17    18    19    1
    18    19    20   ar
    19    20    21   ar
    20    21    22   ar
    21    22    23   ar
    22    23    24   ar
    23    24    25    1
    24    25    26    1
    25    25    27    1
    26    25    28    1
    27     6     1   ar
    28    24    19   ar
    29    13     8    1
    30    12    15    1
@<TRIPOS>MOLECULE
*****
 28 30 0 0 0
SMALL
GASTEIGER

@<TRIPOS>ATOM
      1 C          63.5808   89.7382   13.0183 C.ar    1  UNL1        0.1730
      2 C          64.2900   91.0550   12.9049 C.ar    1  UNL1        0.0401
      3 C          64.2294   91.8316   11.6230 C.ar    1  UNL1        0.0039
      4 C          63.4595   91.2914   10.4546 C.ar    1  UNL1        0.0034
      5 C          62.7503   89.9746   10.5680 C.ar    1  UNL1        0.0406
      6 C          62.8109   89.1980   11.8498 C.ar    1  UNL1        0.1789
      7 C          64.9387   93.1485   11.5097 C.2     1  UNL1        0.0113
      8 C          66.1929   93.2570   10.6941 C.2     1  UNL1        0.0873
      9 S          66.8534   92.1414    9.9397 S.3     1  UNL1       -0.0254
     10 C          68.0756   92.6951    9.2691 C.2     1  UNL1        0.2832
     11 O          69.0344   91.9259    8.4094 O.2     1  UNL1       -0.2622
     12 N          68.1705   94.1530    9.6090 N.am    1  UNL1       -0.2425
     13 C          67.0070   94.5002   10.4897 C.2     1  UNL1        0.2583
     14 O          66.7097   95.8532   11.0651 O.2     1  UNL1       -0.2692
     15 H          68.8731   94.7730    9.3071 H       1  UNL1        0.1587
     16 C          63.4829   89.6686   15.6136 C.3     1  UNL1        0.2526
     17 O          63.6414   88.9616   14.3002 O.3     1  UNL1       -0.4684
     18 O          62.1016   87.8811   11.9632 O.3     1  UNL1       -0.4505
     19 C          62.4482   86.7597   11.0293 C.ar    1  UNL1        0.1493
     20 C          62.3347   86.9562    9.5466 C.ar    1  UNL1        0.0374
     21 C          62.6813   85.8347    8.6127 C.ar    1  UNL1        0.0031
     22 C          63.1415   84.5168    9.1615 C.ar    1  UNL1        0.0001
     23 C          63.2550   84.3203   10.6442 C.ar    1  UNL1        0.0069
     24 C          62.9084   85.4417   11.5781 C.ar    1  UNL1        0.1058
     25 C          63.0219   85.2452   13.0608 C.3     1  UNL1        0.4214
     26 F          63.1355   85.0486   14.5436 F       1  UNL1       -0.1657
     27 F          63.9690   86.4055   13.1421 F       1  UNL1       -0.1657
     28 F          62.0749   84.0848   12.9796 F       1  UNL1       -0.1657
@<TRIPOS>BOND
     1    16    17    1
     2    17     1    1
     3     1     2   ar
     4     2     3   ar
     5     3     7    1
     6     7     8    2
     7     8     9    1
     8     9    10    1
     9    10    11    2
    10    10    12   am
    11    12    13   am
    12    13    14    2
    13     3     4   ar
    14     4     5   ar
    15     5     6   ar
    16     6    18    1
    17    18    19    1
    18    19    20   ar
    19    20    21   ar
    20    21    22   ar
    21    22    23   ar
    22    23    24   ar
    23    24    25    1
    24    25    26    1
    25    25    27    1
    26    25    28    1
    27     6     1   ar
    28    24    19   ar
    29    13     8    1
    30    12    15    1
