@<TRIPOS>MOLECULE
*****
 31 33 0 0 0
SMALL
GASTEIGER

@<TRIPOS>ATOM
      1 C          59.3746   88.9272    7.1860 C.ar    1  UNL1        0.0696
      2 C          59.3800   87.4615    6.8673 C.ar    1  UNL1        0.0057
      3 C          60.1556   86.5095    7.7288 C.ar    1  UNL1       -0.0041
      4 C          60.9257   87.0232    8.9090 C.ar    1  UNL1       -0.0185
      5 C          60.9203   88.4889    9.2277 C.ar    1  UNL1        0.0677
      6 C          60.1447   89.4409    8.3662 C.ar    1  UNL1        0.0095
      7 C          61.7013   86.0712    9.7705 C.3     1  UNL1        0.0257
      8 C          61.4490   86.0212   11.2483 C.3     1  UNL1        0.0259
      9 C          62.2245   85.0692   12.1098 C.3     1  UNL1        0.0937
     10 N          63.2524   84.1672   11.4936 N.am    1  UNL1       -0.2795
     11 C          64.0279   83.2152   12.3551 C.2     1  UNL1        0.2251
     12 O          65.0557   82.3131   11.7388 O.2     1  UNL1       -0.2749
     13 C          63.5046   84.2171   10.0158 C.3     1  UNL1        0.0937
     14 C          62.7291   85.1691    9.1543 C.3     1  UNL1        0.0259
     15 C          63.7756   83.1652   13.8328 C.3     1  UNL1        0.0767
     16 C          62.8648   82.8631   14.9857 C.3     1  UNL1        0.0096
     17 C          64.2495   83.3808   15.2396 C.3     1  UNL1        0.0096
     18 N          59.3178   90.9368    5.5403 N.am    1  UNL1       -0.1708
     19 C          58.5991   89.8792    6.3245 C.2     1  UNL1        0.3078
     20 O          57.1048   89.7736    6.2472 O.2     1  UNL1       -0.2516
     21 H          60.2985   91.0060    5.5911 H       1  UNL1        0.2545
     22 N          57.1633   92.3159    5.0863 N.pl3   1  UNL1       -0.1313
     23 C          58.5422   91.8888    4.6788 C.2     1  UNL1        0.3751
     24 N          59.1456   92.4136    3.4097 N.pl3   1  UNL1       -0.2906
     25 H          56.6543   92.9408    4.5209 H       1  UNL1        0.3060
     26 H          58.6366   93.0384    2.8442 H       1  UNL1        0.2545
     27 H          60.0507   92.1332    3.1422 H       1  UNL1        0.2545
     28 C          61.6904   89.0027   10.4080 C.3     1  UNL1        0.4183
     29 F          62.4606   89.5164   11.5882 F       1  UNL1       -0.1659
     30 F          60.4226   89.0677   11.2070 F       1  UNL1       -0.1659
     31 F          62.9582   88.9376    9.6090 F       1  UNL1       -0.1659
@<TRIPOS>BOND
     1    22    23    2
     2    23    24    1
     3    23    18    1
     4    18    19   am
     5    19    20    2
     6    19     1    1
     7     1     2   ar
     8     2     3   ar
     9     3     4   ar
    10     4     7    1
    11     7     8    1
    12     8     9    1
    13     9    10    1
    14    10    11   am
    15    11    12    2
    16    11    15    1
    17    15    16    1
    18    16    17    1
    19    10    13    1
    20    13    14    1
    21     4     5   ar
    22     5    28    1
    23    28    29    1
    24    28    30    1
    25    28    31    1
    26     5     6   ar
    27     6     1   ar
    28    14     7    1
    29    17    15    1
    30    22    25    1
    31    24    26    1
    32    24    27    1
    33    18    21    1
@<TRIPOS>MOLECULE
*****
 31 33 0 0 0
SMALL
GASTEIGER

@<TRIPOS>ATOM
      1 C          65.7254   93.7150   11.5010 C.ar    1  UNL1        0.0696
      2 C          64.6503   92.7781   11.0358 C.ar    1  UNL1        0.0057
      3 C          64.2196   91.6376   11.9097 C.ar    1  UNL1       -0.0041
      4 C          64.8639   91.4340   13.2489 C.ar    1  UNL1       -0.0185
      5 C          65.9389   92.3709   13.7141 C.ar    1  UNL1        0.0677
      6 C          66.3697   93.5114   12.8402 C.ar    1  UNL1        0.0095
      7 C          64.4332   90.2935   14.1228 C.3     1  UNL1        0.0257
      8 C          64.5012   88.8865   13.6074 C.3     1  UNL1        0.0259
      9 C          64.0705   87.7460   14.4813 C.3     1  UNL1        0.0937
     10 N          63.5718   88.0125   15.8706 N.am    1  UNL1       -0.2795
     11 C          63.1410   86.8720   16.7445 C.2     1  UNL1        0.2251
     12 O          62.6423   87.1385   18.1338 O.2     1  UNL1       -0.2749
     13 C          63.5037   89.4195   16.3860 C.3     1  UNL1        0.0937
     14 C          63.9344   90.5600   15.5121 C.3     1  UNL1        0.0259
     15 C          63.2091   85.4650   16.2292 C.3     1  UNL1        0.0767
     16 C          63.9879   84.3485   15.5992 C.3     1  UNL1        0.0096
     17 C          62.5481   84.1443   15.9666 C.3     1  UNL1        0.0096
     18 N          66.1961   94.6852    9.1374 N.am    1  UNL1       -0.1708
     19 C          66.1561   94.8555   10.6271 C.2     1  UNL1        0.3078
     20 O          66.5467   96.1662   11.2429 O.2     1  UNL1       -0.2516
     21 H          65.9397   93.8249    8.7332 H       1  UNL1        0.2545
     22 N          67.9356   96.5129    8.5180 N.pl3   1  UNL1       -0.1313
     23 C          66.6269   95.8257    8.2634 C.2     1  UNL1        0.3751
     24 N          65.7487   96.2790    7.1349 N.pl3   1  UNL1       -0.2906
     25 H          68.2183   97.2615    7.9444 H       1  UNL1        0.3060
     26 H          66.0314   97.0276    6.5613 H       1  UNL1        0.2545
     27 H          64.8897   95.8280    6.9679 H       1  UNL1        0.2545
     28 C          66.5833   92.1673   15.0533 C.3     1  UNL1        0.4183
     29 F          67.2277   91.9637   16.3924 F       1  UNL1       -0.1659
     30 F          65.6180   93.1386   15.6655 F       1  UNL1       -0.1659
     31 F          67.5486   91.1961   14.4412 F       1  UNL1       -0.1659
@<TRIPOS>BOND
     1    22    23    2
     2    23    24    1
     3    23    18    1
     4    18    19   am
     5    19    20    2
     6    19     1    1
     7     1     2   ar
     8     2     3   ar
     9     3     4   ar
    10     4     7    1
    11     7     8    1
    12     8     9    1
    13     9    10    1
    14    10    11   am
    15    11    12    2
    16    11    15    1
    17    15    16    1
    18    16    17    1
    19    10    13    1
    20    13    14    1
    21     4     5   ar
    22     5    28    1
    23    28    29    1
    24    28    30    1
    25    28    31    1
    26     5     6   ar
    27     6     1   ar
    28    14     7    1
    29    17    15    1
    30    22    25    1
    31    24    26    1
    32    24    27    1
    33    18    21    1
@<TRIPOS>MOLECULE
*****
 31 33 0 0 0
SMALL
GASTEIGER

@<TRIPOS>ATOM
      1 C          65.5472   93.1934   11.9848 C.ar    1  UNL1        0.0696
      2 C          66.2419   92.8268   13.2627 C.ar    1  UNL1        0.0057
      3 C          65.8066   91.6149   14.0320 C.ar    1  UNL1       -0.0041
      4 C          64.6768   90.7695   13.5233 C.ar    1  UNL1       -0.0185
      5 C          63.9822   91.1360   12.2454 C.ar    1  UNL1        0.0677
      6 C          64.4174   92.3480   11.4761 C.ar    1  UNL1        0.0095
      7 C          64.2416   89.5575   14.2926 C.3     1  UNL1        0.0257
      8 C          64.3562   88.1957   13.6743 C.3     1  UNL1        0.0259
      9 C          63.9210   86.9838   14.4436 C.3     1  UNL1        0.0937
     10 N          63.3712   87.1336   15.8311 N.am    1  UNL1       -0.2795
     11 C          62.9360   85.9217   16.6004 C.2     1  UNL1        0.2251
     12 O          62.3862   86.0715   17.9879 O.2     1  UNL1       -0.2749
     13 C          63.2566   88.4954   16.4494 C.3     1  UNL1        0.0937
     14 C          63.6918   89.7074   15.6801 C.3     1  UNL1        0.0259
     15 C          63.0506   84.5599   15.9821 C.3     1  UNL1        0.0767
     16 C          63.8975   83.4320   15.4717 C.3     1  UNL1        0.0096
     17 C          62.4019   83.3289   15.4217 C.3     1  UNL1        0.0096
     18 N          66.2818   94.2958    9.7498 N.am    1  UNL1       -0.1708
     19 C          65.9825   94.4053   11.2155 C.2     1  UNL1        0.3078
     20 O          66.1184   95.7268   11.9120 O.2     1  UNL1       -0.2516
     21 H          66.1926   93.4284    9.2927 H       1  UNL1        0.2545
     22 N          66.1606   95.7670    7.6119 N.pl3   1  UNL1       -0.1313
     23 C          66.7170   95.5077    8.9806 C.2     1  UNL1        0.3751
     24 N          67.7086   96.4604    9.5800 N.pl3   1  UNL1       -0.2906
     25 H          66.4463   96.5625    7.1070 H       1  UNL1        0.3060
     26 H          67.9942   97.2558    9.0751 H       1  UNL1        0.2545
     27 H          68.0737   96.2902   10.4783 H       1  UNL1        0.2545
     28 C          62.8523   90.2906   11.7367 C.3     1  UNL1        0.4183
     29 F          61.7225   89.4452   11.2280 F       1  UNL1       -0.1659
     30 F          62.0871   90.5532   12.9998 F       1  UNL1       -0.1659
     31 F          63.6176   90.0280   10.4736 F       1  UNL1       -0.1659
@<TRIPOS>BOND
     1    22    23    2
     2    23    24    1
     3    23    18    1
     4    18    19   am
     5    19    20    2
     6    19     1    1
     7     1     2   ar
     8     2     3   ar
     9     3     4   ar
    10     4     7    1
    11     7     8    1
    12     8     9    1
    13     9    10    1
    14    10    11   am
    15    11    12    2
    16    11    15    1
    17    15    16    1
    18    16    17    1
    19    10    13    1
    20    13    14    1
    21     4     5   ar
    22     5    28    1
    23    28    29    1
    24    28    30    1
    25    28    31    1
    26     5     6   ar
    27     6     1   ar
    28    14     7    1
    29    17    15    1
    30    22    25    1
    31    24    26    1
    32    24    27    1
    33    18    21    1
@<TRIPOS>MOLECULE
*****
 31 33 0 0 0
SMALL
GASTEIGER

@<TRIPOS>ATOM
      1 C          64.0402   89.3247   13.6723 C.ar    1  UNL1        0.0696
      2 C          63.3824   88.8428   12.4133 C.ar    1  UNL1        0.0057
      3 C          63.1040   87.3810   12.2247 C.ar    1  UNL1       -0.0041
      4 C          63.4834   86.4011   13.2950 C.ar    1  UNL1       -0.0185
      5 C          64.1412   86.8830   14.5540 C.ar    1  UNL1        0.0677
      6 C          64.4196   88.3448   14.7426 C.ar    1  UNL1        0.0095
      7 C          63.2050   84.9393   13.1064 C.3     1  UNL1        0.0257
      8 C          63.5023   84.2828   11.7909 C.3     1  UNL1        0.0259
      9 C          63.2239   82.8210   11.6023 C.3     1  UNL1        0.0937
     10 N          62.6483   82.0156   12.7292 N.am    1  UNL1       -0.2795
     11 C          62.3699   80.5538   12.5406 C.2     1  UNL1        0.2251
     12 O          61.7942   79.7484   13.6675 O.2     1  UNL1       -0.2749
     13 C          62.3510   82.6721   14.0447 C.3     1  UNL1        0.0937
     14 C          62.6294   84.1339   14.2333 C.3     1  UNL1        0.0259
     15 C          62.6672   79.8973   11.2251 C.3     1  UNL1        0.0767
     16 C          63.0961   79.9968    9.7912 C.3     1  UNL1        0.0096
     17 C          62.7531   78.6607   10.3804 C.3     1  UNL1        0.0096
     18 N          65.4199   91.4465   13.0853 N.am    1  UNL1       -0.1708
     19 C          64.3186   90.7866   13.8609 C.2     1  UNL1        0.3078
     20 O          63.4956   91.5885   14.8250 O.2     1  UNL1       -0.2516
     21 H          65.9601   90.9201   12.4525 H       1  UNL1        0.2545
     22 N          65.9572   93.4513   14.6480 N.pl3   1  UNL1       -0.1313
     23 C          65.6983   92.9083   13.2739 C.2     1  UNL1        0.3751
     24 N          65.7178   93.8271   12.0884 N.pl3   1  UNL1       -0.2906
     25 H          66.1399   94.4107   14.7718 H       1  UNL1        0.3060
     26 H          65.9006   94.7866   12.2121 H       1  UNL1        0.2545
     27 H          65.5480   93.4707   11.1865 H       1  UNL1        0.2545
     28 C          64.5207   85.9030   15.6244 C.3     1  UNL1        0.4183
     29 F          64.9001   84.9231   16.6949 F       1  UNL1       -0.1659
     30 F          65.7096   85.4784   14.8144 F       1  UNL1       -0.1659
     31 F          63.3318   86.3276   16.4345 F       1  UNL1       -0.1659
@<TRIPOS>BOND
     1    22    23    2
     2    23    24    1
     3    23    18    1
     4    18    19   am
     5    19    20    2
     6    19     1    1
     7     1     2   ar
     8     2     3   ar
     9     3     4   ar
    10     4     7    1
    11     7     8    1
    12     8     9    1
    13     9    10    1
    14    10    11   am
    15    11    12    2
    16    11    15    1
    17    15    16    1
    18    16    17    1
    19    10    13    1
    20    13    14    1
    21     4     5   ar
    22     5    28    1
    23    28    29    1
    24    28    30    1
    25    28    31    1
    26     5     6   ar
    27     6     1   ar
    28    14     7    1
    29    17    15    1
    30    22    25    1
    31    24    26    1
    32    24    27    1
    33    18    21    1
@<TRIPOS>MOLECULE
*****
 31 33 0 0 0
SMALL
GASTEIGER

@<TRIPOS>ATOM
      1 C          64.0059   89.1626   13.6272 C.ar    1  UNL1        0.0696
      2 C          64.5715   88.1670   14.5962 C.ar    1  UNL1        0.0057
      3 C          64.3104   86.7024   14.4046 C.ar    1  UNL1       -0.0041
      4 C          63.4838   86.2333   13.2442 C.ar    1  UNL1       -0.0185
      5 C          62.9182   87.2289   12.2753 C.ar    1  UNL1        0.0677
      6 C          63.1793   88.6936   12.4668 C.ar    1  UNL1        0.0095
      7 C          63.2227   84.7687   13.0527 C.3     1  UNL1        0.0257
      8 C          63.4787   84.1292   11.7202 C.3     1  UNL1        0.0259
      9 C          63.2176   82.6645   11.5287 C.3     1  UNL1        0.0937
     10 N          62.7006   81.8394   12.6696 N.am    1  UNL1       -0.2795
     11 C          62.4396   80.3748   12.4781 C.2     1  UNL1        0.2251
     12 O          61.9226   79.5496   13.6191 O.2     1  UNL1       -0.2749
     13 C          62.4447   82.4789   14.0021 C.3     1  UNL1        0.0937
     14 C          62.7057   83.9435   14.1936 C.3     1  UNL1        0.0259
     15 C          62.6955   79.7353   11.1457 C.3     1  UNL1        0.0767
     16 C          63.0722   79.8541    9.6986 C.3     1  UNL1        0.0096
     17 C          62.7622   78.5087   10.2848 C.3     1  UNL1        0.0096
     18 N          65.3353   91.3098   13.0170 N.am    1  UNL1       -0.1708
     19 C          64.2670   90.6272   13.8187 C.2     1  UNL1        0.3078
     20 O          63.4597   91.4094   14.8120 O.2     1  UNL1       -0.2516
     21 H          65.8651   90.7964   12.3651 H       1  UNL1        0.2545
     22 N          65.7839   93.3285   14.5897 N.pl3   1  UNL1       -0.1313
     23 C          65.5963   92.7744   13.2085 C.2     1  UNL1        0.3751
     24 N          65.6698   93.6850   12.0188 N.pl3   1  UNL1       -0.2906
     25 H          65.9553   94.2898   14.7154 H       1  UNL1        0.3060
     26 H          65.8411   94.6463   12.1444 H       1  UNL1        0.2545
     27 H          65.5466   93.3213   11.1122 H       1  UNL1        0.2545
     28 C          62.0916   86.7599   11.1147 C.3     1  UNL1        0.4183
     29 F          61.2649   86.2909    9.9543 F       1  UNL1       -0.1659
     30 F          63.0678   87.3887   10.1652 F       1  UNL1       -0.1659
     31 F          61.1154   86.1312   12.0643 F       1  UNL1       -0.1659
@<TRIPOS>BOND
     1    22    23    2
     2    23    24    1
     3    23    18    1
     4    18    19   am
     5    19    20    2
     6    19     1    1
     7     1     2   ar
     8     2     3   ar
     9     3     4   ar
    10     4     7    1
    11     7     8    1
    12     8     9    1
    13     9    10    1
    14    10    11   am
    15    11    12    2
    16    11    15    1
    17    15    16    1
    18    16    17    1
    19    10    13    1
    20    13    14    1
    21     4     5   ar
    22     5    28    1
    23    28    29    1
    24    28    30    1
    25    28    31    1
    26     5     6   ar
    27     6     1   ar
    28    14     7    1
    29    17    15    1
    30    22    25    1
    31    24    26    1
    32    24    27    1
    33    18    21    1
@<TRIPOS>MOLECULE
*****
 31 33 0 0 0
SMALL
GASTEIGER

@<TRIPOS>ATOM
      1 C          64.6058   90.6557   14.0167 C.ar    1  UNL1        0.0696
      2 C          64.2480   89.2196   14.2605 C.ar    1  UNL1        0.0057
      3 C          63.4908   88.4483   13.2205 C.ar    1  UNL1       -0.0041
      4 C          63.0913   89.1131   11.9366 C.ar    1  UNL1       -0.0185
      5 C          63.4491   90.5492   11.6928 C.ar    1  UNL1        0.0677
      6 C          64.2063   91.3205   12.7328 C.ar    1  UNL1        0.0095
      7 C          62.3341   88.3418   10.8966 C.3     1  UNL1        0.0257
      8 C          63.0656   87.4224    9.9641 C.3     1  UNL1        0.0259
      9 C          62.3084   86.6511    8.9240 C.3     1  UNL1        0.0937
     10 N          60.8196   86.7991    8.8165 N.am    1  UNL1       -0.2795
     11 C          60.0624   86.0278    7.7765 C.2     1  UNL1        0.2251
     12 O          58.5736   86.1758    7.6690 O.2     1  UNL1       -0.2749
     13 C          60.0881   87.7185    9.7491 C.3     1  UNL1        0.0937
     14 C          60.8453   88.4898   10.7891 C.3     1  UNL1        0.0259
     15 C          60.7939   85.1085    6.8440 C.3     1  UNL1        0.0767
     16 C          62.0799   84.5237    6.3398 C.3     1  UNL1        0.0096
     17 C          60.7750   84.1010    5.7329 C.3     1  UNL1        0.0096
     18 N          66.8412   91.6341   14.9086 N.am    1  UNL1       -0.1708
     19 C          65.3630   91.4270   15.0567 C.2     1  UNL1        0.3078
     20 O          64.6421   91.9912   16.2449 O.2     1  UNL1       -0.2516
     21 H          67.3144   91.2638   14.1287 H       1  UNL1        0.2545
     22 N          66.9341   93.5376   16.6744 N.pl3   1  UNL1       -0.1313
     23 C          67.5985   92.4054   15.9486 C.2     1  UNL1        0.3751
     24 N          69.0201   92.0445   16.2628 N.pl3   1  UNL1       -0.2906
     25 H          67.4311   94.0438   17.3570 H       1  UNL1        0.3060
     26 H          69.5172   92.5508   16.9454 H       1  UNL1        0.2545
     27 H          69.4562   91.3015   15.7865 H       1  UNL1        0.2545
     28 C          63.0496   91.2141   10.4089 C.3     1  UNL1        0.4183
     29 F          62.6502   91.8789    9.1250 F       1  UNL1       -0.1659
     30 F          61.6204   91.2337   10.8636 F       1  UNL1       -0.1659
     31 F          64.4788   91.1945    9.9541 F       1  UNL1       -0.1659
@<TRIPOS>BOND
     1    22    23    2
     2    23    24    1
     3    23    18    1
     4    18    19   am
     5    19    20    2
     6    19     1    1
     7     1     2   ar
     8     2     3   ar
     9     3     4   ar
    10     4     7    1
    11     7     8    1
    12     8     9    1
    13     9    10    1
    14    10    11   am
    15    11    12    2
    16    11    15    1
    17    15    16    1
    18    16    17    1
    19    10    13    1
    20    13    14    1
    21     4     5   ar
    22     5    28    1
    23    28    29    1
    24    28    30    1
    25    28    31    1
    26     5     6   ar
    27     6     1   ar
    28    14     7    1
    29    17    15    1
    30    22    25    1
    31    24    26    1
    32    24    27    1
    33    18    21    1
@<TRIPOS>MOLECULE
*****
 31 33 0 0 0
SMALL
GASTEIGER

@<TRIPOS>ATOM
      1 C          60.2557   93.7174    0.5595 C.ar    1  UNL1        0.0696
      2 C          59.7396   95.1231    0.6472 C.ar    1  UNL1        0.0057
      3 C          58.6028   95.5606   -0.2281 C.ar    1  UNL1       -0.0041
      4 C          57.9820   94.5925   -1.1911 C.ar    1  UNL1       -0.0185
      5 C          58.4981   93.1868   -1.2788 C.ar    1  UNL1        0.0677
      6 C          59.6350   92.7493   -0.4035 C.ar    1  UNL1        0.0095
      7 C          56.8452   95.0301   -2.0664 C.3     1  UNL1        0.0257
      8 C          55.4358   94.9549   -1.5587 C.3     1  UNL1        0.0259
      9 C          54.2990   95.3925   -2.4340 C.3     1  UNL1        0.0937
     10 N          54.5716   95.9052   -3.8170 N.am    1  UNL1       -0.2795
     11 C          53.4347   96.3427   -4.6923 C.2     1  UNL1        0.2251
     12 O          53.7073   96.8554   -6.0754 O.2     1  UNL1       -0.2749
     13 C          55.9810   95.9803   -4.3247 C.3     1  UNL1        0.0937
     14 C          57.1178   95.5427   -3.4494 C.3     1  UNL1        0.0259
     15 C          52.0253   96.2676   -4.1846 C.3     1  UNL1        0.0767
     16 C          51.0454   96.3625   -3.0529 C.3     1  UNL1        0.0096
     17 C          50.5639   96.0425   -4.4370 C.3     1  UNL1        0.0096
     18 N          62.7958   93.2949    0.9051 N.am    1  UNL1       -0.1708
     19 C          61.3925   93.2798    1.4348 C.2     1  UNL1        0.3078
     20 O          61.1261   92.8272    2.8399 O.2     1  UNL1       -0.2516
     21 H          62.9706   93.5920   -0.0170 H       1  UNL1        0.2545
     22 N          63.7198   91.7825    2.8048 N.pl3   1  UNL1       -0.1313
     23 C          63.9326   92.8574    1.7805 C.2     1  UNL1        0.3751
     24 N          65.2823   93.4947    1.6314 N.pl3   1  UNL1       -0.2906
     25 H          64.4659   91.4953    3.3793 H       1  UNL1        0.3060
     26 H          66.0284   93.2076    2.2059 H       1  UNL1        0.2545
     27 H          65.4220   94.2002    0.9591 H       1  UNL1        0.2545
     28 C          57.8774   92.2187   -2.2418 C.3     1  UNL1        0.4183
     29 F          57.2566   91.2505   -3.2048 F       1  UNL1       -0.1659
     30 F          58.8847   92.6082   -3.2828 F       1  UNL1       -0.1659
     31 F          56.8701   91.8291   -1.2009 F       1  UNL1       -0.1659
@<TRIPOS>BOND
     1    22    23    2
     2    23    24    1
     3    23    18    1
     4    18    19   am
     5    19    20    2
     6    19     1    1
     7     1     2   ar
     8     2     3   ar
     9     3     4   ar
    10     4     7    1
    11     7     8    1
    12     8     9    1
    13     9    10    1
    14    10    11   am
    15    11    12    2
    16    11    15    1
    17    15    16    1
    18    16    17    1
    19    10    13    1
    20    13    14    1
    21     4     5   ar
    22     5    28    1
    23    28    29    1
    24    28    30    1
    25    28    31    1
    26     5     6   ar
    27     6     1   ar
    28    14     7    1
    29    17    15    1
    30    22    25    1
    31    24    26    1
    32    24    27    1
    33    18    21    1
@<TRIPOS>MOLECULE
*****
 31 33 0 0 0
SMALL
GASTEIGER

@<TRIPOS>ATOM
      1 C          64.2620   89.7231   13.8806 C.ar    1  UNL1        0.0696
      2 C          63.6298   89.3511   12.5722 C.ar    1  UNL1        0.0057
      3 C          63.3173   87.9152   12.2716 C.ar    1  UNL1       -0.0041
      4 C          63.6369   86.8512   13.2795 C.ar    1  UNL1       -0.0185
      5 C          64.2691   87.2232   14.5878 C.ar    1  UNL1        0.0677
      6 C          64.5816   88.6591   14.8884 C.ar    1  UNL1        0.0095
      7 C          63.3244   85.4152   12.9789 C.3     1  UNL1        0.0257
      8 C          62.7222   84.5410   14.0386 C.3     1  UNL1        0.0259
      9 C          62.4097   83.1051   13.7380 C.3     1  UNL1        0.0937
     10 N          62.6994   82.5433   12.3777 N.am    1  UNL1       -0.2795
     11 C          62.3869   81.1073   12.0771 C.2     1  UNL1        0.2251
     12 O          62.6766   80.5456   10.7168 O.2     1  UNL1       -0.2749
     13 C          63.3017   83.4175   11.3180 C.3     1  UNL1        0.0937
     14 C          63.6142   84.8535   11.6186 C.3     1  UNL1        0.0259
     15 C          61.7846   80.2331   13.1368 C.3     1  UNL1        0.0767
     16 C          61.8375   78.9986   13.9871 C.3     1  UNL1        0.0096
     17 C          60.6886   79.9535   14.1219 C.3     1  UNL1        0.0096
     18 N          65.7229   91.8364   13.4940 N.am    1  UNL1       -0.1708
     19 C          64.5745   91.1591   14.1812 C.2     1  UNL1        0.3078
     20 O          63.7386   91.9177   15.1690 O.2     1  UNL1       -0.2516
     21 H          66.2716   91.3385   12.8457 H       1  UNL1        0.2545
     22 N          65.8604   94.3164   12.7319 N.pl3   1  UNL1       -0.1313
     23 C          66.0354   93.2724   13.7946 C.2     1  UNL1        0.3751
     24 N          66.5230   93.6643   15.1580 N.pl3   1  UNL1       -0.2906
     25 H          66.0655   95.2588   12.9292 H       1  UNL1        0.3060
     26 H          66.7281   94.6068   15.3553 H       1  UNL1        0.2545
     27 H          66.6379   92.9791   15.8555 H       1  UNL1        0.2545
     28 C          64.5888   86.1592   15.5957 C.3     1  UNL1        0.4183
     29 F          64.9085   85.0952   16.6036 F       1  UNL1       -0.1659
     30 F          63.3864   86.5584   16.3987 F       1  UNL1       -0.1659
     31 F          65.7912   85.7599   14.7928 F       1  UNL1       -0.1659
@<TRIPOS>BOND
     1    22    23    2
     2    23    24    1
     3    23    18    1
     4    18    19   am
     5    19    20    2
     6    19     1    1
     7     1     2   ar
     8     2     3   ar
     9     3     4   ar
    10     4     7    1
    11     7     8    1
    12     8     9    1
    13     9    10    1
    14    10    11   am
    15    11    12    2
    16    11    15    1
    17    15    16    1
    18    16    17    1
    19    10    13    1
    20    13    14    1
    21     4     5   ar
    22     5    28    1
    23    28    29    1
    24    28    30    1
    25    28    31    1
    26     5     6   ar
    27     6     1   ar
    28    14     7    1
    29    17    15    1
    30    22    25    1
    31    24    26    1
    32    24    27    1
    33    18    21    1
@<TRIPOS>MOLECULE
*****
 31 33 0 0 0
SMALL
GASTEIGER

@<TRIPOS>ATOM
      1 C          60.4523   93.2437    1.6402 C.ar    1  UNL1        0.0696
      2 C          59.6904   92.8195    0.4198 C.ar    1  UNL1        0.0057
      3 C          60.2932   93.0015   -0.9416 C.ar    1  UNL1       -0.0041
      4 C          61.6579   93.6078   -1.0826 C.ar    1  UNL1       -0.0185
      5 C          62.4198   94.0321    0.1378 C.ar    1  UNL1        0.0677
      6 C          61.8170   93.8500    1.4992 C.ar    1  UNL1        0.0095
      7 C          62.2606   93.7899   -2.4441 C.3     1  UNL1        0.0257
      8 C          63.2425   92.7853   -2.9701 C.3     1  UNL1        0.0259
      9 C          63.8452   92.9674   -4.3315 C.3     1  UNL1        0.0937
     10 N          63.4662   94.1540   -5.1670 N.am    1  UNL1       -0.2795
     11 C          64.0689   94.3361   -6.5284 C.2     1  UNL1        0.2251
     12 O          63.6899   95.5228   -7.3639 O.2     1  UNL1       -0.2749
     13 C          62.4843   95.1587   -4.6410 C.3     1  UNL1        0.0937
     14 C          61.8816   94.9766   -3.2796 C.3     1  UNL1        0.0259
     15 C          65.0508   93.3315   -7.0544 C.3     1  UNL1        0.0767
     16 C          65.3783   91.9259   -7.4627 C.3     1  UNL1        0.0096
     17 C          66.4239   92.9972   -7.5571 C.3     1  UNL1        0.0096
     18 N          59.3462   91.7135    3.4248 N.am    1  UNL1       -0.1708
     19 C          59.8496   93.0616    3.0017 C.2     1  UNL1        0.3078
     20 O          59.7502   94.2277    3.9400 O.2     1  UNL1       -0.2516
     21 H          59.4114   90.9482    2.8090 H       1  UNL1        0.2545
     22 N          57.5061   92.2895    5.1662 N.pl3   1  UNL1       -0.1313
     23 C          58.7434   91.5314    4.7863 C.2     1  UNL1        0.3751
     24 N          59.3780   90.5912    5.7678 N.pl3   1  UNL1       -0.2906
     25 H          57.1105   92.1700    6.0598 H       1  UNL1        0.3060
     26 H          58.9824   90.4717    6.6614 H       1  UNL1        0.2545
     27 H          60.1900   90.0936    5.5184 H       1  UNL1        0.2545
     28 C          63.7846   94.6384   -0.0032 C.3     1  UNL1        0.4183
     29 F          65.1493   95.2446   -0.1442 F       1  UNL1       -0.1659
     30 F          63.1659   95.9967   -0.1516 F       1  UNL1       -0.1659
     31 F          64.4033   93.2801    0.1452 F       1  UNL1       -0.1659
@<TRIPOS>BOND
     1    22    23    2
     2    23    24    1
     3    23    18    1
     4    18    19   am
     5    19    20    2
     6    19     1    1
     7     1     2   ar
     8     2     3   ar
     9     3     4   ar
    10     4     7    1
    11     7     8    1
    12     8     9    1
    13     9    10    1
    14    10    11   am
    15    11    12    2
    16    11    15    1
    17    15    16    1
    18    16    17    1
    19    10    13    1
    20    13    14    1
    21     4     5   ar
    22     5    28    1
    23    28    29    1
    24    28    30    1
    25    28    31    1
    26     5     6   ar
    27     6     1   ar
    28    14     7    1
    29    17    15    1
    30    22    25    1
    31    24    26    1
    32    24    27    1
    33    18    21    1
