@<TRIPOS>MOLECULE
*****
 33 36 0 0 0
SMALL
GASTEIGER

@<TRIPOS>ATOM
      1 C          62.2574   87.9237   11.7641 C.ar    1  UNL1        0.1462
      2 N          62.8097   86.6621   12.3585 N.ar    1  UNL1       -0.2119
      3 C          62.5850   85.3481   11.6708 C.ar    1  UNL1        0.1515
      4 C          61.8080   85.2957   10.3888 C.ar    1  UNL1        0.0388
      5 C          61.2558   86.5573    9.7944 C.ar    1  UNL1        0.0187
      6 C          60.4565   86.8153    8.5516 C.ar    1  UNL1       -0.0086
      7 C          60.0057   85.7813    7.5629 C.3     1  UNL1        0.0322
      8 C          60.1872   88.2888    8.4711 C.ar    1  UNL1        0.0336
      9 C          59.4198   88.9869    7.3877 C.3     1  UNL1        0.0497
     10 N          60.8201   88.9414    9.6642 N.ar    1  UNL1       -0.3262
     11 C          61.4805   87.8713   10.4821 C.ar    1  UNL1        0.0913
     12 N          63.1372   84.0864   12.2652 N.ar    1  UNL1       -0.2577
     13 C          63.9660   83.1613   11.4242 C.ar    1  UNL1        0.0844
     14 C          64.5182   81.8997   12.0185 C.ar    1  UNL1        0.0193
     15 C          64.2417   81.5631   13.4539 C.ar    1  UNL1        0.0064
     16 C          63.4129   82.4882   14.2950 C.ar    1  UNL1        0.0612
     17 C          62.8607   83.7499   13.7006 C.ar    1  UNL1        0.2659
     18 O          62.0319   84.6750   14.5416 O.2     1  UNL1       -0.2666
     19 N          62.4821   89.2378   12.4517 N.pl3   1  UNL1       -0.3133
     20 H          62.0230   89.4343   13.3002 H       1  UNL1        0.1485
     21 C          63.4064   90.2525   11.8467 C.3     1  UNL1        0.1148
     22 C          64.9112   92.5979   10.7356 C.3     1  UNL1        0.0307
     23 C          65.1109   92.1874   12.1644 C.ar    1  UNL1       -0.0245
     24 C          66.0629   92.9496   13.0377 C.ar    1  UNL1       -0.0045
     25 C          66.2626   92.5391   14.4665 C.ar    1  UNL1       -0.0007
     26 C          65.5102   91.3664   15.0221 C.ar    1  UNL1       -0.0045
     27 C          64.5582   90.6042   14.1488 C.ar    1  UNL1       -0.0245
     28 C          63.8058   89.4314   14.7044 C.3     1  UNL1        0.0307
     29 C          64.3585   91.0147   12.7199 C.ar    1  UNL1       -0.0105
     30 C          60.7967   90.4069    9.9835 C.3     1  UNL1        0.1374
     31 C          59.8213   90.9395   10.9909 C.3     1  UNL1        0.1616
     32 O          59.6221   90.2230   12.2936 O.3     1  UNL1       -0.3799
     33 H          59.2250   89.3538   12.1270 H       1  UNL1        0.2105
@<TRIPOS>BOND
     1    22    23    1
     2    23    24   ar
     3    24    25   ar
     4    25    26   ar
     5    26    27   ar
     6    27    28    1
     7    27    29   ar
     8    29    21    1
     9    21    19    1
    10    19     1    1
    11     1     2   ar
    12     2     3   ar
    13     3    12    1
    14    12    13   ar
    15    13    14   ar
    16    14    15   ar
    17    15    16   ar
    18    16    17   ar
    19    17    18    2
    20     3     4   ar
    21     4     5   ar
    22     5     6   ar
    23     6     7    1
    24     6     8   ar
    25     8     9    1
    26     8    10   ar
    27    10    30    1
    28    30    31    1
    29    31    32    1
    30    10    11   ar
    31    29    23   ar
    32    11     1   ar
    33    17    12   ar
    34    11     5   ar
    35    19    20    1
    36    32    33    1
@<TRIPOS>MOLECULE
*****
 33 36 0 0 0
SMALL
GASTEIGER

@<TRIPOS>ATOM
      1 C          62.2656   87.9243   11.7738 C.ar    1  UNL1        0.1462
      2 N          62.8166   86.6633   12.3707 N.ar    1  UNL1       -0.2119
      3 C          62.5964   85.3490   11.6821 C.ar    1  UNL1        0.1515
      4 C          61.8251   85.2957   10.3967 C.ar    1  UNL1        0.0388
      5 C          61.2741   86.5566    9.7998 C.ar    1  UNL1        0.0187
      6 C          60.4799   86.8136    8.5535 C.ar    1  UNL1       -0.0086
      7 C          60.0346   85.7791    7.5629 C.3     1  UNL1        0.0322
      8 C          60.2094   88.2868    8.4717 C.ar    1  UNL1        0.0336
      9 C          59.4459   88.9840    7.3849 C.3     1  UNL1        0.0497
     10 N          60.8363   88.9402    9.6675 N.ar    1  UNL1       -0.3262
     11 C          61.4943   87.8709   10.4883 C.ar    1  UNL1        0.0913
     12 N          63.1474   84.0880   12.2791 N.ar    1  UNL1       -0.2577
     13 C          63.9851   83.1663   11.4432 C.ar    1  UNL1        0.0844
     14 C          64.5361   81.9053   12.0400 C.ar    1  UNL1        0.0193
     15 C          64.2495   81.5660   13.4728 C.ar    1  UNL1        0.0064
     16 C          63.4118   82.4877   14.3087 C.ar    1  UNL1        0.0612
     17 C          62.8608   83.7487   13.7118 C.ar    1  UNL1        0.2659
     18 O          62.0231   84.6705   14.5476 O.2     1  UNL1       -0.2666
     19 N          62.4858   89.2386   12.4623 N.pl3   1  UNL1       -0.3133
     20 H          62.0162   89.4381   13.3042 H       1  UNL1        0.1485
     21 C          63.4215   90.2491   11.8679 C.3     1  UNL1        0.1148
     22 C          63.7434   89.4693   14.7468 C.3     1  UNL1        0.0307
     23 C          64.5141   90.6312   14.1939 C.ar    1  UNL1       -0.0245
     24 C          65.4459   91.4033   15.0804 C.ar    1  UNL1       -0.0045
     25 C          66.2166   92.5652   14.5274 C.ar    1  UNL1       -0.0007
     26 C          66.0557   92.9551   13.0879 C.ar    1  UNL1       -0.0045
     27 C          65.1240   92.1831   12.2014 C.ar    1  UNL1       -0.0245
     28 C          64.9631   92.5730   10.7620 C.3     1  UNL1        0.0307
     29 C          64.3532   91.0211   12.7544 C.ar    1  UNL1       -0.0105
     30 C          60.8098   90.4057    9.9865 C.3     1  UNL1        0.1374
     31 C          59.8250   90.9383   10.9847 C.3     1  UNL1        0.1616
     32 O          59.6143   90.2225   12.2859 O.3     1  UNL1       -0.3799
     33 H          59.2194   89.3529   12.1164 H       1  UNL1        0.2105
@<TRIPOS>BOND
     1    22    23    1
     2    23    24   ar
     3    24    25   ar
     4    25    26   ar
     5    26    27   ar
     6    27    28    1
     7    27    29   ar
     8    29    21    1
     9    21    19    1
    10    19     1    1
    11     1     2   ar
    12     2     3   ar
    13     3    12    1
    14    12    13   ar
    15    13    14   ar
    16    14    15   ar
    17    15    16   ar
    18    16    17   ar
    19    17    18    2
    20     3     4   ar
    21     4     5   ar
    22     5     6   ar
    23     6     7    1
    24     6     8   ar
    25     8     9    1
    26     8    10   ar
    27    10    30    1
    28    30    31    1
    29    31    32    1
    30    10    11   ar
    31    29    23   ar
    32    11     1   ar
    33    17    12   ar
    34    11     5   ar
    35    19    20    1
    36    32    33    1
@<TRIPOS>MOLECULE
*****
 33 36 0 0 0
SMALL
GASTEIGER

@<TRIPOS>ATOM
      1 C          62.8463   87.5658   12.1878 C.ar    1  UNL1        0.1462
      2 N          63.0806   86.1451   12.6081 N.ar    1  UNL1       -0.2119
      3 C          62.4545   85.0217   11.8361 C.ar    1  UNL1        0.1515
      4 C          61.5943   85.3189   10.6438 C.ar    1  UNL1        0.0388
      5 C          61.3600   86.7396   10.2235 C.ar    1  UNL1        0.0187
      6 C          60.5656   87.3358    9.0995 C.ar    1  UNL1       -0.0086
      7 C          59.7750   86.5738    8.0776 C.3     1  UNL1        0.0322
      8 C          60.7006   88.8277    9.1768 C.ar    1  UNL1        0.0336
      9 C          60.0687   89.8196    8.2457 C.3     1  UNL1        0.0497
     10 N          61.5785   89.1536   10.3485 N.ar    1  UNL1       -0.3262
     11 C          61.9860   87.8630   10.9955 C.ar    1  UNL1        0.0913
     12 N          62.6888   83.6009   12.2565 N.ar    1  UNL1       -0.2577
     13 C          62.2370   83.1346   13.6087 C.ar    1  UNL1        0.0844
     14 C          62.4712   81.7140   14.0291 C.ar    1  UNL1        0.0193
     15 C          63.1572   80.7594   13.0972 C.ar    1  UNL1        0.0064
     16 C          63.6089   81.2257   11.7449 C.ar    1  UNL1        0.0612
     17 C          63.3747   82.6464   11.3246 C.ar    1  UNL1        0.2659
     18 O          63.8265   83.1127    9.9724 O.2     1  UNL1       -0.2666
     19 N          63.4723   88.6893   12.9597 N.pl3   1  UNL1       -0.3133
     20 H          63.2544   89.6226   12.7347 H       1  UNL1        0.1485
     21 C          64.4305   88.3907   14.0746 C.3     1  UNL1        0.1148
     22 C          62.9732   90.0373   16.1155 C.3     1  UNL1        0.0307
     23 C          63.2066   88.5757   16.3588 C.ar    1  UNL1       -0.0245
     24 C          62.7114   87.9373   17.6227 C.ar    1  UNL1       -0.0045
     25 C          62.9447   86.4757   17.8660 C.ar    1  UNL1       -0.0007
     26 C          63.6734   85.6525   16.8456 C.ar    1  UNL1       -0.0045
     27 C          64.1686   86.2908   15.5818 C.ar    1  UNL1       -0.0245
     28 C          64.8972   85.4675   14.5613 C.3     1  UNL1        0.0307
     29 C          63.9352   87.7524   15.3384 C.ar    1  UNL1       -0.0105
     30 C          61.9787   90.5286   10.7950 C.3     1  UNL1        0.1374
     31 C          63.3172   91.0833   10.4068 C.3     1  UNL1        0.1616
     32 O          64.3038   91.4729   11.4673 O.3     1  UNL1       -0.3799
     33 H          63.9564   92.2252   11.9715 H       1  UNL1        0.2105
@<TRIPOS>BOND
     1    22    23    1
     2    23    24   ar
     3    24    25   ar
     4    25    26   ar
     5    26    27   ar
     6    27    28    1
     7    27    29   ar
     8    29    21    1
     9    21    19    1
    10    19     1    1
    11     1     2   ar
    12     2     3   ar
    13     3    12    1
    14    12    13   ar
    15    13    14   ar
    16    14    15   ar
    17    15    16   ar
    18    16    17   ar
    19    17    18    2
    20     3     4   ar
    21     4     5   ar
    22     5     6   ar
    23     6     7    1
    24     6     8   ar
    25     8     9    1
    26     8    10   ar
    27    10    30    1
    28    30    31    1
    29    31    32    1
    30    10    11   ar
    31    29    23   ar
    32    11     1   ar
    33    17    12   ar
    34    11     5   ar
    35    19    20    1
    36    32    33    1
@<TRIPOS>MOLECULE
*****
 33 36 0 0 0
SMALL
GASTEIGER

@<TRIPOS>ATOM
      1 C          62.7465   87.9584   12.0858 C.ar    1  UNL1        0.1462
      2 N          63.1159   86.6259   12.6670 N.ar    1  UNL1       -0.2119
      3 C          62.6366   85.3637   12.0134 C.ar    1  UNL1        0.1515
      4 C          61.7879   85.4341   10.7786 C.ar    1  UNL1        0.0388
      5 C          61.4186   86.7667   10.1973 C.ar    1  UNL1        0.0187
      6 C          60.6017   87.1470    8.9982 C.ar    1  UNL1       -0.0086
      7 C          59.9286   86.1970    8.0526 C.3     1  UNL1        0.0322
      8 C          60.5761   88.6443    8.9107 C.ar    1  UNL1        0.0336
      9 C          59.8729   89.4543    7.8621 C.3     1  UNL1        0.0497
     10 N          61.3772   89.1893   10.0557 N.ar    1  UNL1       -0.3262
     11 C          61.8979   88.0288   10.8509 C.ar    1  UNL1        0.0913
     12 N          63.0059   84.0311   12.5947 N.ar    1  UNL1       -0.2577
     13 C          63.7569   83.0328   11.7642 C.ar    1  UNL1        0.0844
     14 C          64.1262   81.7003   12.3454 C.ar    1  UNL1        0.0193
     15 C          63.7446   81.3659   13.7571 C.ar    1  UNL1        0.0064
     16 C          62.9937   82.3642   14.5875 C.ar    1  UNL1        0.0612
     17 C          62.6243   83.6968   14.0062 C.ar    1  UNL1        0.2659
     18 O          61.8734   84.6951   14.8366 O.2     1  UNL1       -0.2666
     19 N          63.2259   89.2206   12.7394 N.pl3   1  UNL1       -0.3133
     20 H          62.7884   90.0783   12.5337 H       1  UNL1        0.1485
     21 C          64.3717   89.1761   13.7064 C.3     1  UNL1        0.1148
     22 C          62.7870   89.1941   16.2536 C.3     1  UNL1        0.0307
     23 C          63.7670   90.2943   15.9722 C.ar    1  UNL1       -0.0245
     24 C          63.9546   91.4036   16.9644 C.ar    1  UNL1       -0.0045
     25 C          64.9346   92.5037   16.6829 C.ar    1  UNL1       -0.0007
     26 C          65.7270   92.4947   15.4093 C.ar    1  UNL1       -0.0045
     27 C          65.5393   91.3855   14.4171 C.ar    1  UNL1       -0.0245
     28 C          66.3317   91.3765   13.1435 C.3     1  UNL1        0.0307
     29 C          64.5593   90.2853   14.6986 C.ar    1  UNL1       -0.0105
     30 C          61.6158   90.6400   10.3533 C.3     1  UNL1        0.1374
     31 C          62.8993   91.2911    9.9306 C.3     1  UNL1        0.1616
     32 O          63.9679   91.5713   10.9453 O.3     1  UNL1       -0.3799
     33 H          63.6488   92.2357   11.5758 H       1  UNL1        0.2105
@<TRIPOS>BOND
     1    22    23    1
     2    23    24   ar
     3    24    25   ar
     4    25    26   ar
     5    26    27   ar
     6    27    28    1
     7    27    29   ar
     8    29    21    1
     9    21    19    1
    10    19     1    1
    11     1     2   ar
    12     2     3   ar
    13     3    12    1
    14    12    13   ar
    15    13    14   ar
    16    14    15   ar
    17    15    16   ar
    18    16    17   ar
    19    17    18    2
    20     3     4   ar
    21     4     5   ar
    22     5     6   ar
    23     6     7    1
    24     6     8   ar
    25     8     9    1
    26     8    10   ar
    27    10    30    1
    28    30    31    1
    29    31    32    1
    30    10    11   ar
    31    29    23   ar
    32    11     1   ar
    33    17    12   ar
    34    11     5   ar
    35    19    20    1
    36    32    33    1
@<TRIPOS>MOLECULE
*****
 33 36 0 0 0
SMALL
GASTEIGER

@<TRIPOS>ATOM
      1 C          62.7370   87.9553   12.0900 C.ar    1  UNL1        0.1462
      2 N          63.1084   86.6223   12.6689 N.ar    1  UNL1       -0.2119
      3 C          62.6331   85.3605   12.0116 C.ar    1  UNL1        0.1515
      4 C          61.7864   85.4318   10.7754 C.ar    1  UNL1        0.0388
      5 C          61.4150   86.7649   10.1966 C.ar    1  UNL1        0.0187
      6 C          60.5993   87.1461    8.9969 C.ar    1  UNL1       -0.0086
      7 C          59.9300   86.1967    8.0480 C.3     1  UNL1        0.0322
      8 C          60.5705   88.6435    8.9127 C.ar    1  UNL1        0.0336
      9 C          59.8673   89.4543    7.8648 C.3     1  UNL1        0.0497
     10 N          61.3684   89.1877   10.0604 N.ar    1  UNL1       -0.3262
     11 C          61.8904   88.0266   10.8539 C.ar    1  UNL1        0.0913
     12 N          63.0044   84.0274   12.5904 N.ar    1  UNL1       -0.2577
     13 C          63.7461   83.0271   11.7542 C.ar    1  UNL1        0.0844
     14 C          64.1174   81.6940   12.3330 C.ar    1  UNL1        0.0193
     15 C          63.7471   81.3613   13.7480 C.ar    1  UNL1        0.0064
     16 C          63.0054   82.3616   14.5842 C.ar    1  UNL1        0.0612
     17 C          62.6341   83.6947   14.0053 C.ar    1  UNL1        0.2659
     18 O          61.8924   84.6951   14.8415 O.2     1  UNL1       -0.2666
     19 N          63.2124   89.2171   12.7473 N.pl3   1  UNL1       -0.3133
     20 H          62.7674   90.0728   12.5499 H       1  UNL1        0.1485
     21 C          64.3657   89.1751   13.7054 C.3     1  UNL1        0.1148
     22 C          66.3265   91.3740   13.1395 C.3     1  UNL1        0.0307
     23 C          65.5373   91.3827   14.4151 C.ar    1  UNL1       -0.0245
     24 C          65.7285   92.4910   15.4077 C.ar    1  UNL1       -0.0045
     25 C          64.9393   92.4997   16.6833 C.ar    1  UNL1       -0.0007
     26 C          63.9590   91.4003   16.9663 C.ar    1  UNL1       -0.0045
     27 C          63.7678   90.2921   15.9737 C.ar    1  UNL1       -0.0245
     28 C          62.7874   89.1926   16.2566 C.3     1  UNL1        0.0307
     29 C          64.5569   90.2833   14.6980 C.ar    1  UNL1       -0.0105
     30 C          61.6032   90.6382   10.3617 C.3     1  UNL1        0.1374
     31 C          62.8778   91.2980    9.9257 C.3     1  UNL1        0.1616
     32 O          64.0030   91.4744   10.9017 O.3     1  UNL1       -0.3799
     33 H          63.7319   92.0907   11.6000 H       1  UNL1        0.2105
@<TRIPOS>BOND
     1    22    23    1
     2    23    24   ar
     3    24    25   ar
     4    25    26   ar
     5    26    27   ar
     6    27    28    1
     7    27    29   ar
     8    29    21    1
     9    21    19    1
    10    19     1    1
    11     1     2   ar
    12     2     3   ar
    13     3    12    1
    14    12    13   ar
    15    13    14   ar
    16    14    15   ar
    17    15    16   ar
    18    16    17   ar
    19    17    18    2
    20     3     4   ar
    21     4     5   ar
    22     5     6   ar
    23     6     7    1
    24     6     8   ar
    25     8     9    1
    26     8    10   ar
    27    10    30    1
    28    30    31    1
    29    31    32    1
    30    10    11   ar
    31    29    23   ar
    32    11     1   ar
    33    17    12   ar
    34    11     5   ar
    35    19    20    1
    36    32    33    1
@<TRIPOS>MOLECULE
*****
 33 36 0 0 0
SMALL
GASTEIGER

@<TRIPOS>ATOM
      1 C          62.8540   87.5829   12.1928 C.ar    1  UNL1        0.1462
      2 N          63.0883   86.1626   12.6146 N.ar    1  UNL1       -0.2119
      3 C          62.4627   85.0384   11.8434 C.ar    1  UNL1        0.1515
      4 C          61.6028   85.3344   10.6506 C.ar    1  UNL1        0.0388
      5 C          61.3684   86.7547   10.2289 C.ar    1  UNL1        0.0187
      6 C          60.5742   87.3497    9.1041 C.ar    1  UNL1       -0.0086
      7 C          59.7840   86.5866    8.0827 C.3     1  UNL1        0.0322
      8 C          60.7090   88.8417    9.1800 C.ar    1  UNL1        0.0336
      9 C          60.0771   89.8326    8.2478 C.3     1  UNL1        0.0497
     10 N          61.5864   89.1688   10.3518 N.ar    1  UNL1       -0.3262
     11 C          61.9940   87.8789   11.0000 C.ar    1  UNL1        0.0913
     12 N          62.6971   83.6180   12.2651 N.ar    1  UNL1       -0.2577
     13 C          62.2429   83.1523   13.6167 C.ar    1  UNL1        0.0844
     14 C          62.4773   81.7321   14.0385 C.ar    1  UNL1        0.0193
     15 C          63.1658   80.7774   13.1086 C.ar    1  UNL1        0.0064
     16 C          63.6200   81.2431   11.7570 C.ar    1  UNL1        0.0612
     17 C          63.3856   82.6635   11.3353 C.ar    1  UNL1        0.2659
     18 O          63.8398   83.1292    9.9837 O.2     1  UNL1       -0.2666
     19 N          63.4795   88.7072   12.9640 N.pl3   1  UNL1       -0.3133
     20 H          63.2626   89.6403   12.7371 H       1  UNL1        0.1485
     21 C          64.4357   88.4098   14.0808 C.3     1  UNL1        0.1148
     22 C          64.9099   85.4863   14.5586 C.3     1  UNL1        0.0307
     23 C          64.1767   86.3040   15.5803 C.ar    1  UNL1       -0.0245
     24 C          63.6806   85.6600   16.8409 C.ar    1  UNL1       -0.0045
     25 C          62.9474   86.4777   17.8625 C.ar    1  UNL1       -0.0007
     26 C          62.7103   87.9394   17.6236 C.ar    1  UNL1       -0.0045
     27 C          63.2064   88.5835   16.3631 C.ar    1  UNL1       -0.0245
     28 C          62.9693   90.0452   16.1241 C.3     1  UNL1        0.0307
     29 C          63.9396   87.7658   15.3413 C.ar    1  UNL1       -0.0105
     30 C          61.9862   90.5443   10.7971 C.3     1  UNL1        0.1374
     31 C          63.3241   91.0994   10.4077 C.3     1  UNL1        0.1616
     32 O          64.3220   91.4640   11.4666 O.3     1  UNL1       -0.3799
     33 H          63.9829   92.2084   11.9878 H       1  UNL1        0.2105
@<TRIPOS>BOND
     1    22    23    1
     2    23    24   ar
     3    24    25   ar
     4    25    26   ar
     5    26    27   ar
     6    27    28    1
     7    27    29   ar
     8    29    21    1
     9    21    19    1
    10    19     1    1
    11     1     2   ar
    12     2     3   ar
    13     3    12    1
    14    12    13   ar
    15    13    14   ar
    16    14    15   ar
    17    15    16   ar
    18    16    17   ar
    19    17    18    2
    20     3     4   ar
    21     4     5   ar
    22     5     6   ar
    23     6     7    1
    24     6     8   ar
    25     8     9    1
    26     8    10   ar
    27    10    30    1
    28    30    31    1
    29    31    32    1
    30    10    11   ar
    31    29    23   ar
    32    11     1   ar
    33    17    12   ar
    34    11     5   ar
    35    19    20    1
    36    32    33    1
@<TRIPOS>MOLECULE
*****
 33 36 0 0 0
SMALL
GASTEIGER

@<TRIPOS>ATOM
      1 C          62.9919   87.6743   12.4711 C.ar    1  UNL1        0.1462
      2 N          62.1696   88.0539   11.2755 N.ar    1  UNL1       -0.2119
      3 C          61.5257   86.9880   10.4392 C.ar    1  UNL1        0.1515
      4 C          61.7041   85.5427   10.7986 C.ar    1  UNL1        0.0388
      5 C          62.5264   85.1632   11.9943 C.ar    1  UNL1        0.0187
      6 C          62.8770   83.8318   12.5897 C.ar    1  UNL1       -0.0086
      7 C          62.4431   82.4926   12.0718 C.3     1  UNL1        0.0322
      8 C          63.7376   84.0748   13.7941 C.ar    1  UNL1        0.0336
      9 C          64.3154   83.0212   14.6919 C.3     1  UNL1        0.0497
     10 N          63.9189   85.5563   13.9429 N.ar    1  UNL1       -0.3262
     11 C          63.1704   86.2290   12.8305 C.ar    1  UNL1        0.0913
     12 N          60.7033   87.3676    9.2434 N.ar    1  UNL1       -0.2577
     13 C          60.2755   86.3159    8.2631 C.ar    1  UNL1        0.0844
     14 C          59.4531   86.6954    7.0674 C.ar    1  UNL1        0.0193
     15 C          59.0585   88.1265    6.8520 C.ar    1  UNL1        0.0064
     16 C          59.4864   89.1781    7.8324 C.ar    1  UNL1        0.0612
     17 C          60.3088   88.7986    9.0281 C.ar    1  UNL1        0.2659
     18 O          60.7366   89.8502   10.0085 O.2     1  UNL1       -0.2666
     19 N          63.6359   88.7401   13.3075 N.pl3   1  UNL1       -0.3133
     20 H          64.3107   88.4963   13.9816 H       1  UNL1        0.1485
     21 C          63.2517   90.1775   13.1167 C.3     1  UNL1        0.1148
     22 C          65.2452   91.1556   15.1339 C.3     1  UNL1        0.0307
     23 C          65.2861   91.6737   13.7269 C.ar    1  UNL1       -0.0245
     24 C          66.3239   92.6809   13.3284 C.ar    1  UNL1       -0.0045
     25 C          66.3648   93.1991   11.9214 C.ar    1  UNL1       -0.0007
     26 C          65.3680   92.7100   10.9127 C.ar    1  UNL1       -0.0045
     27 C          64.3304   91.7029   11.3111 C.ar    1  UNL1       -0.0245
     28 C          63.3336   91.2138   10.3025 C.3     1  UNL1        0.0307
     29 C          64.2894   91.1847   12.7183 C.ar    1  UNL1       -0.0105
     30 C          64.7099   86.2444   15.0157 C.3     1  UNL1        0.1374
     31 C          64.0198   86.7541   16.2462 C.3     1  UNL1        0.1616
     32 O          63.2537   88.0428   16.1971 O.3     1  UNL1       -0.3799
     33 H          63.8668   88.7776   16.0387 H       1  UNL1        0.2105
@<TRIPOS>BOND
     1    22    23    1
     2    23    24   ar
     3    24    25   ar
     4    25    26   ar
     5    26    27   ar
     6    27    28    1
     7    27    29   ar
     8    29    21    1
     9    21    19    1
    10    19     1    1
    11     1     2   ar
    12     2     3   ar
    13     3    12    1
    14    12    13   ar
    15    13    14   ar
    16    14    15   ar
    17    15    16   ar
    18    16    17   ar
    19    17    18    2
    20     3     4   ar
    21     4     5   ar
    22     5     6   ar
    23     6     7    1
    24     6     8   ar
    25     8     9    1
    26     8    10   ar
    27    10    30    1
    28    30    31    1
    29    31    32    1
    30    10    11   ar
    31    29    23   ar
    32    11     1   ar
    33    17    12   ar
    34    11     5   ar
    35    19    20    1
    36    32    33    1
@<TRIPOS>MOLECULE
*****
 33 36 0 0 0
SMALL
GASTEIGER

@<TRIPOS>ATOM
      1 C          63.5734   87.7576   13.4926 C.ar    1  UNL1        0.1462
      2 N          64.4581   88.6679   14.2917 N.ar    1  UNL1       -0.2119
      3 C          64.7071   90.0714   13.8249 C.ar    1  UNL1        0.1515
      4 C          64.0714   90.5647   12.5589 C.ar    1  UNL1        0.0388
      5 C          63.1867   89.6544   11.7598 C.ar    1  UNL1        0.0187
      6 C          62.4287   89.8591   10.4817 C.ar    1  UNL1       -0.0086
      7 C          62.3943   91.1196    9.6693 C.3     1  UNL1        0.0322
      8 C          61.7113   88.5821   10.1586 C.ar    1  UNL1        0.0336
      9 C          60.8334   88.3413    8.9663 C.3     1  UNL1        0.0497
     10 N          62.0258   87.5881   11.2370 N.ar    1  UNL1       -0.3262
     11 C          62.9377   88.2509   12.2266 C.ar    1  UNL1        0.0913
     12 N          65.5919   90.9818   14.6240 N.ar    1  UNL1       -0.2577
     13 C          67.0417   91.1226   14.2661 C.ar    1  UNL1        0.0844
     14 C          67.9265   92.0329   15.0652 C.ar    1  UNL1        0.0193
     15 C          67.3614   92.8025   16.2221 C.ar    1  UNL1        0.0064
     16 C          65.9115   92.6616   16.5800 C.ar    1  UNL1        0.0612
     17 C          65.0267   91.7513   15.7809 C.ar    1  UNL1        0.2659
     18 O          63.5769   91.6105   16.1387 O.2     1  UNL1       -0.2666
     19 N          63.3243   86.3539   13.9594 N.pl3   1  UNL1       -0.3133
     20 H          62.6509   86.1790   14.6559 H       1  UNL1        0.1485
     21 C          64.1013   85.2169   13.3648 C.3     1  UNL1        0.1148
     22 C          62.3559   84.2794   15.6176 C.3     1  UNL1        0.0307
     23 C          62.6351   83.3710   14.4571 C.ar    1  UNL1       -0.0245
     24 C          62.0415   81.9938   14.4229 C.ar    1  UNL1       -0.0045
     25 C          62.3207   81.0854   13.2624 C.ar    1  UNL1       -0.0007
     26 C          63.1933   81.5542   12.1360 C.ar    1  UNL1       -0.0045
     27 C          63.7869   82.9313   12.1701 C.ar    1  UNL1       -0.0245
     28 C          64.6595   83.4000   11.0438 C.3     1  UNL1        0.0307
     29 C          63.5077   83.8398   13.3307 C.ar    1  UNL1       -0.0105
     30 C          61.5177   86.1788   11.3125 C.3     1  UNL1        0.1374
     31 C          61.7758   85.2269   10.1824 C.3     1  UNL1        0.1616
     32 O          62.8264   85.5439    9.1598 O.3     1  UNL1       -0.3799
     33 H          62.5594   86.3275    8.6542 H       1  UNL1        0.2105
@<TRIPOS>BOND
     1    22    23    1
     2    23    24   ar
     3    24    25   ar
     4    25    26   ar
     5    26    27   ar
     6    27    28    1
     7    27    29   ar
     8    29    21    1
     9    21    19    1
    10    19     1    1
    11     1     2   ar
    12     2     3   ar
    13     3    12    1
    14    12    13   ar
    15    13    14   ar
    16    14    15   ar
    17    15    16   ar
    18    16    17   ar
    19    17    18    2
    20     3     4   ar
    21     4     5   ar
    22     5     6   ar
    23     6     7    1
    24     6     8   ar
    25     8     9    1
    26     8    10   ar
    27    10    30    1
    28    30    31    1
    29    31    32    1
    30    10    11   ar
    31    29    23   ar
    32    11     1   ar
    33    17    12   ar
    34    11     5   ar
    35    19    20    1
    36    32    33    1
@<TRIPOS>MOLECULE
*****
 33 36 0 0 0
SMALL
GASTEIGER

@<TRIPOS>ATOM
      1 C          62.9156   87.0515   11.8483 C.ar    1  UNL1        0.1462
      2 N          63.5758   87.9176   12.8798 N.ar    1  UNL1       -0.2119
      3 C          63.1786   89.3577   13.0155 C.ar    1  UNL1        0.1515
      4 C          62.1212   89.9316   12.1196 C.ar    1  UNL1        0.0388
      5 C          61.4610   89.0655   11.0882 C.ar    1  UNL1        0.0187
      6 C          60.3951   89.3501   10.0718 C.ar    1  UNL1       -0.0086
      7 C          59.7110   90.6675    9.8570 C.3     1  UNL1        0.0322
      8 C          60.1336   88.0859    9.3080 C.ar    1  UNL1        0.0336
      9 C          59.1419   87.9172    8.1952 C.3     1  UNL1        0.0497
     10 N          61.0378   87.0200    9.8523 N.ar    1  UNL1       -0.3262
     11 C          61.8582   87.6255   10.9525 C.ar    1  UNL1        0.0913
     12 N          63.8388   90.2239   14.0470 N.ar    1  UNL1       -0.2577
     13 C          65.0450   91.0376   13.6823 C.ar    1  UNL1        0.0844
     14 C          65.7052   91.9037   14.7137 C.ar    1  UNL1        0.0193
     15 C          65.1592   91.9562   16.1099 C.ar    1  UNL1        0.0064
     16 C          63.9530   91.1424   16.4746 C.ar    1  UNL1        0.0612
     17 C          63.2928   90.2763   15.4431 C.ar    1  UNL1        0.2659
     18 O          62.0867   89.4625   15.8077 O.2     1  UNL1       -0.2666
     19 N          63.3128   85.6114   11.7126 N.pl3   1  UNL1       -0.3133
     20 H          63.3587   85.1953   10.8216 H       1  UNL1        0.1485
     21 C          63.6400   84.8053   12.9346 C.3     1  UNL1        0.1148
     22 C          64.1584   82.8176   10.7482 C.3     1  UNL1        0.0307
     23 C          63.3925   82.4056   11.9703 C.ar    1  UNL1       -0.0245
     24 C          62.8858   80.9996   12.0993 C.ar    1  UNL1       -0.0045
     25 C          62.1199   80.5876   13.3214 C.ar    1  UNL1       -0.0007
     26 C          61.8607   81.5814   14.4146 C.ar    1  UNL1       -0.0045
     27 C          62.3674   82.9873   14.2857 C.ar    1  UNL1       -0.0245
     28 C          62.1082   83.9812   15.3789 C.3     1  UNL1        0.0307
     29 C          63.1333   83.3994   13.0635 C.ar    1  UNL1       -0.0105
     30 C          61.1091   85.5983    9.3794 C.3     1  UNL1        0.1374
     31 C          62.0252   85.2284    8.2507 C.3     1  UNL1        0.1616
     32 O          63.5049   85.4324    8.3880 O.3     1  UNL1       -0.3799
     33 H          63.6962   86.3814    8.4479 H       1  UNL1        0.2105
@<TRIPOS>BOND
     1    22    23    1
     2    23    24   ar
     3    24    25   ar
     4    25    26   ar
     5    26    27   ar
     6    27    28    1
     7    27    29   ar
     8    29    21    1
     9    21    19    1
    10    19     1    1
    11     1     2   ar
    12     2     3   ar
    13     3    12    1
    14    12    13   ar
    15    13    14   ar
    16    14    15   ar
    17    15    16   ar
    18    16    17   ar
    19    17    18    2
    20     3     4   ar
    21     4     5   ar
    22     5     6   ar
    23     6     7    1
    24     6     8   ar
    25     8     9    1
    26     8    10   ar
    27    10    30    1
    28    30    31    1
    29    31    32    1
    30    10    11   ar
    31    29    23   ar
    32    11     1   ar
    33    17    12   ar
    34    11     5   ar
    35    19    20    1
    36    32    33    1
