@<TRIPOS>MOLECULE
*****
 30 33 0 0 0
SMALL
GASTEIGER

@<TRIPOS>ATOM
      1 C          62.9073   86.4588   12.1515 C.ar    1  UNL1        0.0814
      2 C          62.4363   85.7828   10.8981 C.ar    1  UNL1        0.0381
      3 C          62.1644   86.5933    9.6656 C.ar    1  UNL1        0.1031
      4 C          62.3635   88.0799    9.6865 C.ar    1  UNL1        0.1005
      5 N          62.8345   88.7559   10.9399 N.ar    1  UNL1       -0.2905
      6 C          63.1185   90.1938   11.2588 C.ar    1  UNL1        0.0567
      7 C          62.9794   91.3505   10.3140 C.3     1  UNL1        0.0517
      8 C          63.5659   90.2720   12.6884 C.ar    1  UNL1        0.0730
      9 C          63.9528   91.5206   13.4242 C.3     1  UNL1        0.0534
     10 N          63.5584   88.8824   13.2531 N.ar    1  UNL1       -0.2299
     11 C          63.1064   87.9454   12.1724 C.ar    1  UNL1        0.1604
     12 N          61.6933   85.9173    8.4121 N.ar    1  UNL1       -0.2106
     13 N          62.5029   84.9938    7.5508 N.ar    1  UNL1       -0.1411
     14 C          61.6399   84.5519    6.4063 C.ar    1  UNL1        0.2211
     15 N          60.2969   85.2022    6.5602 N.ar    1  UNL1       -0.2050
     16 C          60.3300   86.0460    7.7999 C.ar    1  UNL1        0.1720
     17 C          59.1984   86.8734    8.3336 C.3     1  UNL1        0.2032
     18 O          58.3969   87.7363    7.4047 O.3     1  UNL1       -0.3748
     19 H          58.9611   88.4418    7.0512 H       1  UNL1        0.2110
     20 N          63.1792   85.6482   13.3840 N.pl3   1  UNL1       -0.3267
     21 H          62.7993   85.9252   14.2490 H       1  UNL1        0.1472
     22 C          64.0299   84.4158   13.2986 C.3     1  UNL1        0.1137
     23 C          62.3590   83.4330   15.5882 C.3     1  UNL1        0.0307
     24 C          62.5502   82.5716   14.3752 C.ar    1  UNL1       -0.0245
     25 C          61.9058   81.2187   14.3070 C.ar    1  UNL1       -0.0045
     26 C          62.0970   80.3572   13.0940 C.ar    1  UNL1       -0.0007
     27 C          62.9325   80.8486   11.9493 C.ar    1  UNL1       -0.0045
     28 C          63.5768   82.2014   12.0174 C.ar    1  UNL1       -0.0245
     29 C          64.4123   82.6928   10.8726 C.3     1  UNL1        0.0307
     30 C          63.3856   83.0630   13.2304 C.ar    1  UNL1       -0.0105
@<TRIPOS>BOND
     1    23    24    1
     2    24    25   ar
     3    25    26   ar
     4    26    27   ar
     5    27    28   ar
     6    28    29    1
     7    28    30   ar
     8    30    22    1
     9    22    20    1
    10    20     1    1
    11     1     2   ar
    12     2     3   ar
    13     3    12    1
    14    12    13   ar
    15    13    14   ar
    16    14    15   ar
    17    15    16   ar
    18    16    17    1
    19    17    18    1
    20     3     4   ar
    21     4     5   ar
    22     5     6   ar
    23     6     7    1
    24     6     8   ar
    25     8     9    1
    26     8    10   ar
    27    10    11   ar
    28    30    24   ar
    29    11     1   ar
    30    16    12   ar
    31    11     5   ar
    32    20    21    1
    33    18    19    1
@<TRIPOS>MOLECULE
*****
 30 33 0 0 0
SMALL
GASTEIGER

@<TRIPOS>ATOM
      1 C          62.3939   88.8704   10.8123 C.ar    1  UNL1        0.0814
      2 C          62.8049   87.7062   11.6641 C.ar    1  UNL1        0.0381
      3 C          62.2170   86.3492   11.4135 C.ar    1  UNL1        0.1031
      4 C          61.2182   86.1564   10.3112 C.ar    1  UNL1        0.1005
      5 N          60.8072   87.3206    9.4594 N.ar    1  UNL1       -0.2905
      6 C          59.8514   87.4347    8.3090 C.ar    1  UNL1        0.0567
      7 C          59.0408   86.3174    7.7221 C.3     1  UNL1        0.0517
      8 C          59.8486   88.8623    7.8485 C.ar    1  UNL1        0.0730
      9 C          59.0346   89.4232    6.7202 C.3     1  UNL1        0.0534
     10 N          60.8026   89.6305    8.7143 N.ar    1  UNL1       -0.2299
     11 C          61.3951   88.6776    9.7099 C.ar    1  UNL1        0.1604
     12 N          62.6280   85.1848   12.2653 N.ar    1  UNL1       -0.2106
     13 N          62.3837   85.0403   13.7382 N.ar    1  UNL1       -0.1411
     14 C          62.9601   83.7268   14.1769 C.ar    1  UNL1        0.2211
     15 N          63.5606   83.0595   12.9752 N.ar    1  UNL1       -0.2050
     16 C          63.3553   83.9607   11.7937 C.ar    1  UNL1        0.1720
     17 C          63.7994   83.6859   10.3876 C.3     1  UNL1        0.2032
     18 O          64.7118   82.5302   10.1015 O.3     1  UNL1       -0.3748
     19 H          65.5743   82.6888   10.5160 H       1  UNL1        0.2110
     20 N          62.9818   90.2276   11.0628 N.pl3   1  UNL1       -0.3267
     21 H          63.2773   90.7834   10.3058 H       1  UNL1        0.1472
     22 C          63.1194   90.7378   12.4666 C.3     1  UNL1        0.1137
     23 C          64.0911   89.8243   15.1539 C.3     1  UNL1        0.0307
     24 C          64.9434   90.7313   14.3168 C.ar    1  UNL1       -0.0245
     25 C          66.2816   91.1817   14.8233 C.ar    1  UNL1       -0.0045
     26 C          67.1339   92.0887   13.9861 C.ar    1  UNL1       -0.0007
     27 C          66.6481   92.5455   12.6425 C.ar    1  UNL1       -0.0045
     28 C          65.3099   92.0952   12.1360 C.ar    1  UNL1       -0.0245
     29 C          64.8241   92.5519   10.7923 C.3     1  UNL1        0.0307
     30 C          64.4576   91.1881   12.9731 C.ar    1  UNL1       -0.0105
@<TRIPOS>BOND
     1    23    24    1
     2    24    25   ar
     3    25    26   ar
     4    26    27   ar
     5    27    28   ar
     6    28    29    1
     7    28    30   ar
     8    30    22    1
     9    22    20    1
    10    20     1    1
    11     1     2   ar
    12     2     3   ar
    13     3    12    1
    14    12    13   ar
    15    13    14   ar
    16    14    15   ar
    17    15    16   ar
    18    16    17    1
    19    17    18    1
    20     3     4   ar
    21     4     5   ar
    22     5     6   ar
    23     6     7    1
    24     6     8   ar
    25     8     9    1
    26     8    10   ar
    27    10    11   ar
    28    30    24   ar
    29    11     1   ar
    30    16    12   ar
    31    11     5   ar
    32    20    21    1
    33    18    19    1
@<TRIPOS>MOLECULE
*****
 30 33 0 0 0
SMALL
GASTEIGER

@<TRIPOS>ATOM
      1 C          62.3940   88.8533   10.8282 C.ar    1  UNL1        0.0814
      2 C          62.7988   87.6877   11.6811 C.ar    1  UNL1        0.0381
      3 C          62.2053   86.3331   11.4305 C.ar    1  UNL1        0.1031
      4 C          61.2071   86.1441   10.3270 C.ar    1  UNL1        0.1005
      5 N          60.8022   87.3097    9.4741 N.ar    1  UNL1       -0.2905
      6 C          59.8484   87.4274    8.3224 C.ar    1  UNL1        0.0567
      7 C          59.0337   86.3133    7.7350 C.3     1  UNL1        0.0517
      8 C          59.8524   88.8547    7.8612 C.ar    1  UNL1        0.0730
      9 C          59.0423   89.4185    6.7316 C.3     1  UNL1        0.0534
     10 N          60.8086   89.6192    8.7278 N.ar    1  UNL1       -0.2299
     11 C          61.3957   88.6643    9.7247 C.ar    1  UNL1        0.1604
     12 N          62.6102   85.1674   12.2834 N.ar    1  UNL1       -0.2106
     13 N          62.3795   85.0327   13.7594 N.ar    1  UNL1       -0.1411
     14 C          62.9435   83.7138   14.1982 C.ar    1  UNL1        0.2211
     15 N          63.5228   83.0335   12.9934 N.ar    1  UNL1       -0.2050
     16 C          63.3168   83.9318   11.8100 C.ar    1  UNL1        0.1720
     17 C          63.7426   83.6450   10.4006 C.3     1  UNL1        0.2032
     18 O          64.7995   82.6153   10.1312 O.3     1  UNL1       -0.3748
     19 H          65.6454   82.9165   10.4982 H       1  UNL1        0.2110
     20 N          62.9874   90.2080   11.0787 N.pl3   1  UNL1       -0.3267
     21 H          63.2847   90.7628   10.3218 H       1  UNL1        0.1472
     22 C          63.1279   90.7172   12.4827 C.3     1  UNL1        0.1137
     23 C          64.8132   92.5430   10.8016 C.3     1  UNL1        0.0307
     24 C          65.3078   92.0894   12.1431 C.ar    1  UNL1       -0.0245
     25 C          66.6450   92.5486   12.6441 C.ar    1  UNL1       -0.0045
     26 C          67.1395   92.0949   13.9856 C.ar    1  UNL1       -0.0007
     27 C          66.2969   91.1820   14.8261 C.ar    1  UNL1       -0.0045
     28 C          64.9597   90.7227   14.3251 C.ar    1  UNL1       -0.0245
     29 C          64.1170   89.8098   15.1657 C.3     1  UNL1        0.0307
     30 C          64.4651   91.1764   12.9836 C.ar    1  UNL1       -0.0105
@<TRIPOS>BOND
     1    23    24    1
     2    24    25   ar
     3    25    26   ar
     4    26    27   ar
     5    27    28   ar
     6    28    29    1
     7    28    30   ar
     8    30    22    1
     9    22    20    1
    10    20     1    1
    11     1     2   ar
    12     2     3   ar
    13     3    12    1
    14    12    13   ar
    15    13    14   ar
    16    14    15   ar
    17    15    16   ar
    18    16    17    1
    19    17    18    1
    20     3     4   ar
    21     4     5   ar
    22     5     6   ar
    23     6     7    1
    24     6     8   ar
    25     8     9    1
    26     8    10   ar
    27    10    11   ar
    28    30    24   ar
    29    11     1   ar
    30    16    12   ar
    31    11     5   ar
    32    20    21    1
    33    18    19    1
@<TRIPOS>MOLECULE
*****
 30 33 0 0 0
SMALL
GASTEIGER

@<TRIPOS>ATOM
      1 C          62.2434   87.2882   11.7286 C.ar    1  UNL1        0.0814
      2 C          63.0916   88.4421   12.1745 C.ar    1  UNL1        0.0381
      3 C          63.0537   89.7370   11.4182 C.ar    1  UNL1        0.1031
      4 C          62.1676   89.8778   10.2162 C.ar    1  UNL1        0.1005
      5 N          61.3194   88.7239    9.7703 N.ar    1  UNL1       -0.2905
      6 C          60.3554   88.5677    8.6318 C.ar    1  UNL1        0.0567
      7 C          60.0100   89.6184    7.6186 C.3     1  UNL1        0.0517
      8 C          59.7974   87.1763    8.6843 C.ar    1  UNL1        0.0730
      9 C          58.7961   86.5914    7.7329 C.3     1  UNL1        0.0534
     10 N          60.4166   86.4725    9.8554 N.ar    1  UNL1       -0.2299
     11 C          61.3573   87.4290   10.5265 C.ar    1  UNL1        0.1604
     12 N          63.9020   90.8910   11.8641 N.ar    1  UNL1       -0.2106
     13 N          64.6251   91.8519   10.9675 N.ar    1  UNL1       -0.1411
     14 C          65.3460   92.8415   11.8341 C.ar    1  UNL1        0.2211
     15 N          65.0685   92.4922   13.2663 N.ar    1  UNL1       -0.2050
     16 C          64.1761   91.2867   13.2848 C.ar    1  UNL1        0.1720
     17 C          63.6500   90.5979   14.5090 C.3     1  UNL1        0.2032
     18 O          63.5247   91.3530   15.7990 O.3     1  UNL1       -0.3748
     19 H          64.4077   91.5979   16.1174 H       1  UNL1        0.2110
     20 N          62.2812   85.9932   12.4848 N.pl3   1  UNL1       -0.3267
     21 H          61.5585   85.7698   13.1149 H       1  UNL1        0.1472
     22 C          63.4203   85.0387   12.2811 C.3     1  UNL1        0.1137
     23 C          62.4450   83.7728   14.8200 C.3     1  UNL1        0.0307
     24 C          62.6907   82.9265   13.6062 C.ar    1  UNL1       -0.0245
     25 C          62.4487   81.4471   13.6618 C.ar    1  UNL1       -0.0045
     26 C          62.6944   80.6008   12.4480 C.ar    1  UNL1       -0.0007
     27 C          63.1821   81.2338   11.1785 C.ar    1  UNL1       -0.0045
     28 C          63.4240   82.7131   11.1228 C.ar    1  UNL1       -0.0245
     29 C          63.9117   83.3461    9.8534 C.3     1  UNL1        0.0307
     30 C          63.1783   83.5595   12.3367 C.ar    1  UNL1       -0.0105
@<TRIPOS>BOND
     1    23    24    1
     2    24    25   ar
     3    25    26   ar
     4    26    27   ar
     5    27    28   ar
     6    28    29    1
     7    28    30   ar
     8    30    22    1
     9    22    20    1
    10    20     1    1
    11     1     2   ar
    12     2     3   ar
    13     3    12    1
    14    12    13   ar
    15    13    14   ar
    16    14    15   ar
    17    15    16   ar
    18    16    17    1
    19    17    18    1
    20     3     4   ar
    21     4     5   ar
    22     5     6   ar
    23     6     7    1
    24     6     8   ar
    25     8     9    1
    26     8    10   ar
    27    10    11   ar
    28    30    24   ar
    29    11     1   ar
    30    16    12   ar
    31    11     5   ar
    32    20    21    1
    33    18    19    1
@<TRIPOS>MOLECULE
*****
 30 33 0 0 0
SMALL
GASTEIGER

@<TRIPOS>ATOM
      1 C          62.8832   86.5673   12.5330 C.ar    1  UNL1        0.0814
      2 C          62.0346   86.1926   11.3542 C.ar    1  UNL1        0.0381
      3 C          61.6295   87.2392   10.3589 C.ar    1  UNL1        0.1031
      4 C          62.0728   88.6604   10.5425 C.ar    1  UNL1        0.1005
      5 N          62.9214   89.0350   11.7213 N.ar    1  UNL1       -0.2905
      6 C          63.5056   90.3444   12.1618 C.ar    1  UNL1        0.0567
      7 C          63.3507   91.6601   11.4583 C.3     1  UNL1        0.0517
      8 C          64.2718   90.1071   13.4293 C.ar    1  UNL1        0.0730
      9 C          65.0178   91.1440   14.2159 C.3     1  UNL1        0.0534
     10 N          64.1612   88.6510   13.7722 N.ar    1  UNL1       -0.2299
     11 C          63.3265   87.9884   12.7165 C.ar    1  UNL1        0.1604
     12 N          60.7809   86.8646    9.1801 N.ar    1  UNL1       -0.2106
     13 N          59.3853   87.3438    8.9105 N.ar    1  UNL1       -0.1411
     14 C          58.9208   86.7204    7.6277 C.ar    1  UNL1        0.2211
     15 N          60.0294   85.8559    7.1044 N.ar    1  UNL1       -0.2050
     16 C          61.1789   85.9450    8.0638 C.ar    1  UNL1        0.1720
     17 C          62.4954   85.2386    7.9304 C.3     1  UNL1        0.2032
     18 O          62.8373   84.5235    6.6570 O.3     1  UNL1       -0.3748
     19 H          62.2367   83.7713    6.5373 H       1  UNL1        0.2110
     20 N          63.2884   85.5207   13.5283 N.pl3   1  UNL1       -0.3267
     21 H          63.0258   85.6117   14.4727 H       1  UNL1        0.1472
     22 C          64.0936   84.3355   13.0845 C.3     1  UNL1        0.1137
     23 C          64.3012   82.6828   10.5894 C.3     1  UNL1        0.0307
     24 C          63.5645   82.1503   11.7826 C.ar    1  UNL1       -0.0245
     25 C          62.9316   80.7914   11.7283 C.ar    1  UNL1       -0.0045
     26 C          62.1950   80.2589   12.9215 C.ar    1  UNL1       -0.0007
     27 C          62.0912   81.0852   14.1691 C.ar    1  UNL1       -0.0045
     28 C          62.7241   82.4441   14.2234 C.ar    1  UNL1       -0.0245
     29 C          62.6203   83.2704   15.4710 C.3     1  UNL1        0.0307
     30 C          63.4608   82.9767   13.0302 C.ar    1  UNL1       -0.0105
@<TRIPOS>BOND
     1    23    24    1
     2    24    25   ar
     3    25    26   ar
     4    26    27   ar
     5    27    28   ar
     6    28    29    1
     7    28    30   ar
     8    30    22    1
     9    22    20    1
    10    20     1    1
    11     1     2   ar
    12     2     3   ar
    13     3    12    1
    14    12    13   ar
    15    13    14   ar
    16    14    15   ar
    17    15    16   ar
    18    16    17    1
    19    17    18    1
    20     3     4   ar
    21     4     5   ar
    22     5     6   ar
    23     6     7    1
    24     6     8   ar
    25     8     9    1
    26     8    10   ar
    27    10    11   ar
    28    30    24   ar
    29    11     1   ar
    30    16    12   ar
    31    11     5   ar
    32    20    21    1
    33    18    19    1
@<TRIPOS>MOLECULE
*****
 30 33 0 0 0
SMALL
GASTEIGER

@<TRIPOS>ATOM
      1 C          63.0667   87.7593   12.4608 C.ar    1  UNL1        0.0814
      2 C          62.1983   88.0547   11.2739 C.ar    1  UNL1        0.0381
      3 C          61.5065   86.9354   10.5538 C.ar    1  UNL1        0.1031
      4 C          61.6832   85.5208   11.0204 C.ar    1  UNL1        0.1005
      5 N          62.5516   85.2255   12.2073 N.ar    1  UNL1       -0.2905
      6 C          62.9116   83.9408   12.8927 C.ar    1  UNL1        0.0567
      7 C          62.4401   82.5712   12.5027 C.3     1  UNL1        0.0517
      8 C          63.8259   84.2660   14.0365 C.ar    1  UNL1        0.0730
      9 C          64.4293   83.2787   14.9912 C.3     1  UNL1        0.0534
     10 N          64.0310   85.7517   14.0580 N.ar    1  UNL1       -0.2299
     11 C          63.2433   86.3447   12.9274 C.ar    1  UNL1        0.1604
     12 N          60.6381   87.2307    9.3668 N.ar    1  UNL1       -0.2106
     13 N          60.1807   86.2375    8.3401 N.ar    1  UNL1       -0.1411
     14 C          59.3345   86.9640    7.3371 C.ar    1  UNL1        0.2211
     15 N          59.2689   88.4063    7.7439 N.ar    1  UNL1       -0.2050
     16 C          60.0746   88.5711    8.9984 C.ar    1  UNL1        0.1720
     17 C          60.2806   89.8516    9.7521 C.3     1  UNL1        0.2032
     18 O          59.4919   90.1233   10.9986 O.3     1  UNL1       -0.3748
     19 H          58.5531   90.2169   10.7733 H       1  UNL1        0.2110
     20 N          63.7585   88.8786   13.1810 N.pl3   1  UNL1       -0.3267
     21 H          64.4925   88.6819   13.8070 H       1  UNL1        0.1472
     22 C          63.3321   90.2976   12.9474 C.3     1  UNL1        0.1137
     23 C          65.3233   91.3251   14.9423 C.3     1  UNL1        0.0307
     24 C          65.3387   91.8403   13.5336 C.ar    1  UNL1       -0.0245
     25 C          66.3497   92.8693   13.1224 C.ar    1  UNL1       -0.0045
     26 C          66.3651   93.3845   11.7137 C.ar    1  UNL1       -0.0007
     27 C          65.3695   92.8708   10.7163 C.ar    1  UNL1       -0.0045
     28 C          64.3585   91.8418   11.1275 C.ar    1  UNL1       -0.0245
     29 C          63.3629   91.3281   10.1301 C.3     1  UNL1        0.0307
     30 C          64.3431   91.3266   12.5362 C.ar    1  UNL1       -0.0105
@<TRIPOS>BOND
     1    23    24    1
     2    24    25   ar
     3    25    26   ar
     4    26    27   ar
     5    27    28   ar
     6    28    29    1
     7    28    30   ar
     8    30    22    1
     9    22    20    1
    10    20     1    1
    11     1     2   ar
    12     2     3   ar
    13     3    12    1
    14    12    13   ar
    15    13    14   ar
    16    14    15   ar
    17    15    16   ar
    18    16    17    1
    19    17    18    1
    20     3     4   ar
    21     4     5   ar
    22     5     6   ar
    23     6     7    1
    24     6     8   ar
    25     8     9    1
    26     8    10   ar
    27    10    11   ar
    28    30    24   ar
    29    11     1   ar
    30    16    12   ar
    31    11     5   ar
    32    20    21    1
    33    18    19    1
@<TRIPOS>MOLECULE
*****
 30 33 0 0 0
SMALL
GASTEIGER

@<TRIPOS>ATOM
      1 C          62.9858   86.7708   12.6845 C.ar    1  UNL1        0.0814
      2 C          63.6923   87.9154   13.3483 C.ar    1  UNL1        0.0381
      3 C          63.5640   89.3015   12.7896 C.ar    1  UNL1        0.1031
      4 C          62.7293   89.5430   11.5670 C.ar    1  UNL1        0.1005
      5 N          62.0227   88.3985   10.9031 N.ar    1  UNL1       -0.2905
      6 C          61.1368   88.3309    9.6946 C.ar    1  UNL1        0.0567
      7 C          60.7398   89.4881    8.8267 C.3     1  UNL1        0.0517
      8 C          60.7175   86.9031    9.5064 C.ar    1  UNL1        0.0730
      9 C          59.8276   86.3817    8.4172 C.3     1  UNL1        0.0534
     10 N          61.3443   86.0881   10.5986 N.ar    1  UNL1       -0.2299
     11 C          62.1510   87.0124   11.4618 C.ar    1  UNL1        0.1604
     12 N          64.2706   90.4461   13.4535 N.ar    1  UNL1       -0.2106
     13 N          65.0954   91.4923   12.7641 N.ar    1  UNL1       -0.1411
     14 C          65.6109   92.4382   13.8079 C.ar    1  UNL1        0.2211
     15 N          65.1047   91.9767   15.1424 N.ar    1  UNL1       -0.2050
     16 C          64.2763   90.7455   14.9233 C.ar    1  UNL1        0.1720
     17 C          63.5766   89.9529   15.9873 C.3     1  UNL1        0.2032
     18 O          62.1204   89.6238   15.8418 O.3     1  UNL1       -0.3748
     19 H          61.5990   90.4409   15.8789 H       1  UNL1        0.2110
     20 N          63.1140   85.3847   13.2432 N.pl3   1  UNL1       -0.3267
     21 H          62.5826   85.1192   14.0282 H       1  UNL1        0.1472
     22 C          64.0521   84.4029   12.6058 C.3     1  UNL1        0.1137
     23 C          64.0951   83.2716    9.8276 C.3     1  UNL1        0.0307
     24 C          63.6305   82.4248   10.9751 C.ar    1  UNL1       -0.0245
     25 C          63.1873   81.0121   10.7336 C.ar    1  UNL1       -0.0045
     26 C          62.7227   80.1653   11.8812 C.ar    1  UNL1       -0.0007
     27 C          62.7011   80.7310   13.2702 C.ar    1  UNL1       -0.0045
     28 C          63.1443   82.1435   13.5118 C.ar    1  UNL1       -0.0245
     29 C          63.1228   82.7091   14.9009 C.3     1  UNL1        0.0307
     30 C          63.6089   82.9904   12.3642 C.ar    1  UNL1       -0.0105
@<TRIPOS>BOND
     1    23    24    1
     2    24    25   ar
     3    25    26   ar
     4    26    27   ar
     5    27    28   ar
     6    28    29    1
     7    28    30   ar
     8    30    22    1
     9    22    20    1
    10    20     1    1
    11     1     2   ar
    12     2     3   ar
    13     3    12    1
    14    12    13   ar
    15    13    14   ar
    16    14    15   ar
    17    15    16   ar
    18    16    17    1
    19    17    18    1
    20     3     4   ar
    21     4     5   ar
    22     5     6   ar
    23     6     7    1
    24     6     8   ar
    25     8     9    1
    26     8    10   ar
    27    10    11   ar
    28    30    24   ar
    29    11     1   ar
    30    16    12   ar
    31    11     5   ar
    32    20    21    1
    33    18    19    1
@<TRIPOS>MOLECULE
*****
 30 33 0 0 0
SMALL
GASTEIGER

@<TRIPOS>ATOM
      1 C          63.4679   91.2192   11.1247 C.ar    1  UNL1        0.0814
      2 C          64.3108   92.2142   10.3835 C.ar    1  UNL1        0.0381
      3 C          65.3693   92.9895   11.1103 C.ar    1  UNL1        0.1031
      4 C          65.5849   92.7700   12.5784 C.ar    1  UNL1        0.1005
      5 N          64.7420   91.7750   13.3196 N.ar    1  UNL1       -0.2905
      6 C          64.7246   91.3477   14.7574 C.ar    1  UNL1        0.0567
      7 C          65.6194   91.8685   15.8428 C.3     1  UNL1        0.0517
      8 C          63.6553   90.3082   14.9191 C.ar    1  UNL1        0.0730
      9 C          63.2931   89.6070   16.1948 C.3     1  UNL1        0.0534
     10 N          63.0118   90.0931   13.5814 N.ar    1  UNL1       -0.2299
     11 C          63.6835   90.9997   12.5928 C.ar    1  UNL1        0.1604
     12 N          66.2123   93.9845   10.3690 N.ar    1  UNL1       -0.2106
     13 N          65.9419   95.4552   10.2513 N.ar    1  UNL1       -0.1411
     14 C          67.0361   96.0631    9.4249 C.ar    1  UNL1        0.2211
     15 N          67.9829   94.9681    9.0317 N.ar    1  UNL1       -0.2050
     16 C          67.4737   93.6834    9.6152 C.ar    1  UNL1        0.1720
     17 C          68.1137   92.3346    9.4704 C.3     1  UNL1        0.2032
     18 O          68.8608   91.9896    8.2163 O.3     1  UNL1       -0.3748
     19 H          68.2420   91.9566    7.4700 H       1  UNL1        0.2110
     20 N          62.4093   90.4438   10.3979 N.pl3   1  UNL1       -0.3267
     21 H          62.1762   90.6788    9.4707 H       1  UNL1        0.1472
     22 C          61.7059   89.3104   11.0838 C.3     1  UNL1        0.1137
     23 C          63.0666   86.9060   12.2532 C.3     1  UNL1        0.0307
     24 C          62.2703   86.7762   10.9887 C.ar    1  UNL1       -0.0245
     25 C          62.1544   85.4441   10.3088 C.ar    1  UNL1       -0.0045
     26 C          61.3581   85.3142    9.0443 C.ar    1  UNL1       -0.0007
     27 C          60.6778   86.5164    8.4596 C.ar    1  UNL1       -0.0045
     28 C          60.7936   87.8484    9.1394 C.ar    1  UNL1       -0.0245
     29 C          60.1133   89.0506    8.5548 C.3     1  UNL1        0.0307
     30 C          61.5900   87.9783   10.4040 C.ar    1  UNL1       -0.0105
@<TRIPOS>BOND
     1    23    24    1
     2    24    25   ar
     3    25    26   ar
     4    26    27   ar
     5    27    28   ar
     6    28    29    1
     7    28    30   ar
     8    30    22    1
     9    22    20    1
    10    20     1    1
    11     1     2   ar
    12     2     3   ar
    13     3    12    1
    14    12    13   ar
    15    13    14   ar
    16    14    15   ar
    17    15    16   ar
    18    16    17    1
    19    17    18    1
    20     3     4   ar
    21     4     5   ar
    22     5     6   ar
    23     6     7    1
    24     6     8   ar
    25     8     9    1
    26     8    10   ar
    27    10    11   ar
    28    30    24   ar
    29    11     1   ar
    30    16    12   ar
    31    11     5   ar
    32    20    21    1
    33    18    19    1
@<TRIPOS>MOLECULE
*****
 30 33 0 0 0
SMALL
GASTEIGER

@<TRIPOS>ATOM
      1 C          63.0450   87.4260   12.3820 C.ar    1  UNL1        0.0814
      2 C          62.2036   87.6430   11.1594 C.ar    1  UNL1        0.0381
      3 C          61.5700   86.4725   10.4677 C.ar    1  UNL1        0.1031
      4 C          61.7777   85.0851   10.9986 C.ar    1  UNL1        0.1005
      5 N          62.6192   84.8681   12.2212 N.ar    1  UNL1       -0.2905
      6 C          62.9995   83.6255   12.9704 C.ar    1  UNL1        0.0567
      7 C          62.5840   82.2261   12.6254 C.3     1  UNL1        0.0517
      8 C          63.8682   84.0280   14.1251 C.ar    1  UNL1        0.0730
      9 C          64.4740   83.1016   15.1376 C.3     1  UNL1        0.0534
     10 N          64.0248   85.5193   14.0897 N.ar    1  UNL1       -0.2299
     11 C          63.2528   86.0386   12.9130 C.ar    1  UNL1        0.1604
     12 N          60.7285   86.6895    9.2450 N.ar    1  UNL1       -0.2106
     13 N          59.5017   87.5484    9.1599 N.ar    1  UNL1       -0.1411
     14 C          58.9812   87.4753    7.7551 C.ar    1  UNL1        0.2211
     15 N          59.8863   86.5712    6.9718 N.ar    1  UNL1       -0.2050
     16 C          60.9661   86.0855    7.8926 C.ar    1  UNL1        0.1720
     17 C          62.0869   85.1586    7.5255 C.3     1  UNL1        0.2032
     18 O          62.1005   84.4937    6.1811 O.3     1  UNL1       -0.3748
     19 H          61.3534   83.8783    6.1172 H       1  UNL1        0.2110
     20 N          63.6787   88.5965   13.0738 N.pl3   1  UNL1       -0.3267
     21 H          64.4311   88.4543   13.6926 H       1  UNL1        0.1472
     22 C          63.1660   89.9836   12.8227 C.3     1  UNL1        0.1137
     23 C          63.0740   91.1102   10.0438 C.3     1  UNL1        0.0307
     24 C          64.0700   91.6368   11.0340 C.ar    1  UNL1       -0.0245
     25 C          65.0201   92.7268   10.6347 C.ar    1  UNL1       -0.0045
     26 C          66.0162   93.2534   11.6249 C.ar    1  UNL1       -0.0007
     27 C          66.0622   92.6901   13.0144 C.ar    1  UNL1       -0.0045
     28 C          65.1122   91.6002   13.4136 C.ar    1  UNL1       -0.0245
     29 C          65.1582   91.0369   14.8031 C.3     1  UNL1        0.0307
     30 C          64.1160   91.0735   12.4234 C.ar    1  UNL1       -0.0105
@<TRIPOS>BOND
     1    23    24    1
     2    24    25   ar
     3    25    26   ar
     4    26    27   ar
     5    27    28   ar
     6    28    29    1
     7    28    30   ar
     8    30    22    1
     9    22    20    1
    10    20     1    1
    11     1     2   ar
    12     2     3   ar
    13     3    12    1
    14    12    13   ar
    15    13    14   ar
    16    14    15   ar
    17    15    16   ar
    18    16    17    1
    19    17    18    1
    20     3     4   ar
    21     4     5   ar
    22     5     6   ar
    23     6     7    1
    24     6     8   ar
    25     8     9    1
    26     8    10   ar
    27    10    11   ar
    28    30    24   ar
    29    11     1   ar
    30    16    12   ar
    31    11     5   ar
    32    20    21    1
    33    18    19    1
