@<TRIPOS>MOLECULE
*****
 22 25 0 0 0
SMALL
GASTEIGER

@<TRIPOS>ATOM
      1 C          66.9667   92.0857   14.2991 C.2     1  UNL1        0.3271
      2 N          66.0871   91.3286   15.2494 N.2     1  UNL1       -0.0380
      3 C          64.8623   90.8934   14.5008 C.2     1  UNL1        0.2637
      4 C          63.6512   90.1158   14.9232 C.2     1  UNL1        0.2821
      5 N          62.5627   89.8261   13.9326 N.2     1  UNL1       -0.0268
      6 C          62.6853   90.3143   12.5195 C.2     1  UNL1        0.3760
      7 N          61.7807   90.1829   11.3302 N.2     1  UNL1       -0.0306
      8 C          62.4327   90.8795   10.1728 C.2     1  UNL1        0.2361
      9 C          63.7403   91.4413   10.6467 C.2     1  UNL1        0.0583
     10 C          63.8964   91.0920   12.0971 C.2     1  UNL1        0.1203
     11 C          64.9849   91.3815   13.0878 C.3     1  UNL1        0.2597
     12 N          66.2855   92.1184   12.9631 N.pl3   1  UNL1       -0.1861
     13 C          66.8124   92.7730   11.7206 C.3     1  UNL1        0.1900
     14 C          67.7093   92.0085   10.7927 C.3     1  UNL1        0.0518
     15 C          68.2362   92.6632    9.5502 C.3     1  UNL1        0.0363
     16 C          67.8661   94.0824    9.2356 C.3     1  UNL1        0.1425
     17 O          66.9692   94.8469   10.1635 O.3     1  UNL1       -0.3495
     18 C          66.4423   94.1923   11.4060 C.3     1  UNL1        0.1884
     19 C          68.3902   93.7542   15.6918 C.3     1  UNL1        0.0450
     20 C          68.2943   92.7019   14.6272 C.3     1  UNL1        0.2165
     21 O          69.5261   92.2657   13.8906 O.3     1  UNL1       -0.3737
     22 H          69.2905   91.5844   13.2416 H       1  UNL1        0.2111
@<TRIPOS>BOND
     1    20    19    1
     2    20    21    1
     3    20     1    1
     4     1     2    2
     5     2     3    1
     6     3     4    2
     7     4     5    1
     8     5     6    2
     9     6     7    1
    10     7     8    2
    11     8     9    1
    12     9    10    2
    13    10    11    1
    14    11    12    1
    15    13    12    1
    16    13    14    1
    17    14    15    1
    18    15    16    1
    19    16    17    1
    20    17    18    1
    21    12     1    1
    22    18    13    1
    23    11     3    1
    24    10     6    1
    25    21    22    1
@<TRIPOS>MOLECULE
*****
 22 25 0 0 0
SMALL
GASTEIGER

@<TRIPOS>ATOM
      1 C          63.1468   90.5002   11.8266 C.2     1  UNL1        0.3271
      2 N          63.7031   91.5517   10.9129 N.2     1  UNL1       -0.0380
      3 C          64.8771   92.1868   11.5974 C.2     1  UNL1        0.2637
      4 C          65.8137   93.2799   11.1762 C.2     1  UNL1        0.2821
      5 N          66.9197   93.7142   12.0919 N.2     1  UNL1       -0.0268
      6 C          67.0889   93.0552   13.4287 C.2     1  UNL1        0.3760
      7 N          68.0786   93.2696   14.5353 N.2     1  UNL1       -0.0306
      8 C          67.7534   92.3089   15.6404 C.2     1  UNL1        0.2361
      9 C          66.5629   91.5007   15.2168 C.2     1  UNL1        0.0583
     10 C          66.1522   91.9620   13.8499 C.2     1  UNL1        0.1203
     11 C          65.0462   91.5278   12.9342 C.3     1  UNL1        0.2597
     12 N          63.9769   90.4854   13.0759 N.pl3   1  UNL1       -0.1861
     13 C          63.7734   89.5862   14.2590 C.3     1  UNL1        0.1900
     14 C          63.2202   90.1425   15.5375 C.3     1  UNL1        0.0518
     15 C          63.0167   89.2431   16.7207 C.3     1  UNL1        0.0363
     16 C          63.3664   87.7876   16.6254 C.3     1  UNL1        0.1425
     17 O          63.9195   87.2313   15.3469 O.3     1  UNL1       -0.3495
     18 C          64.1230   88.1305   14.1637 C.3     1  UNL1        0.1884
     19 C          62.0226   88.6352   10.4096 C.3     1  UNL1        0.0450
     20 C          61.9675   89.6183   11.5411 C.3     1  UNL1        0.2165
     21 O          60.7330   89.7197   12.3872 O.3     1  UNL1       -0.3737
     22 H          60.8627   90.3980   13.0684 H       1  UNL1        0.2111
@<TRIPOS>BOND
     1    20    19    1
     2    20    21    1
     3    20     1    1
     4     1     2    2
     5     2     3    1
     6     3     4    2
     7     4     5    1
     8     5     6    2
     9     6     7    1
    10     7     8    2
    11     8     9    1
    12     9    10    2
    13    10    11    1
    14    11    12    1
    15    13    12    1
    16    13    14    1
    17    14    15    1
    18    15    16    1
    19    16    17    1
    20    17    18    1
    21    12     1    1
    22    18    13    1
    23    11     3    1
    24    10     6    1
    25    21    22    1
@<TRIPOS>MOLECULE
*****
 22 25 0 0 0
SMALL
GASTEIGER

@<TRIPOS>ATOM
      1 C          65.9458   92.6200   10.9753 C.2     1  UNL1        0.3271
      2 N          64.7008   92.1000   10.3199 N.2     1  UNL1       -0.0380
      3 C          63.8942   91.3819   11.3610 C.2     1  UNL1        0.2637
      4 C          62.5765   90.6686   11.2942 C.2     1  UNL1        0.2821
      5 N          62.0052   90.0313   12.5262 N.2     1  UNL1       -0.0268
      6 C          62.7518   90.1075   13.8249 C.2     1  UNL1        0.3760
      7 N          62.4409   89.5789   15.1938 N.2     1  UNL1       -0.0306
      8 C          63.5665   89.9657   16.1067 C.2     1  UNL1        0.2361
      9 C          64.5732   90.7332   15.3019 C.2     1  UNL1        0.0583
     10 C          64.0696   90.8209   13.8917 C.2     1  UNL1        0.1203
     11 C          64.6408   91.4581   12.6598 C.3     1  UNL1        0.2597
     12 N          65.9088   92.2233   12.4214 N.pl3   1  UNL1       -0.1861
     13 C          66.9558   92.5367   13.4487 C.3     1  UNL1        0.1900
     14 C          66.6338   93.4514   14.5930 C.3     1  UNL1        0.0518
     15 C          67.6809   93.7648   15.6203 C.3     1  UNL1        0.0363
     16 C          69.0501   93.1634   15.5033 C.3     1  UNL1        0.1425
     17 O          69.3721   92.2487   14.3590 O.3     1  UNL1       -0.3495
     18 C          68.3251   91.9353   13.3317 C.3     1  UNL1        0.1884
     19 C          67.9825   92.7103    9.3647 C.3     1  UNL1        0.0450
     20 C          67.0364   93.3998   10.3026 C.3     1  UNL1        0.2165
     21 O          67.1810   94.8690   10.5678 O.3     1  UNL1       -0.3737
     22 H          66.4952   95.1539   11.1918 H       1  UNL1        0.2111
@<TRIPOS>BOND
     1    20    19    1
     2    20    21    1
     3    20     1    1
     4     1     2    2
     5     2     3    1
     6     3     4    2
     7     4     5    1
     8     5     6    2
     9     6     7    1
    10     7     8    2
    11     8     9    1
    12     9    10    2
    13    10    11    1
    14    11    12    1
    15    13    12    1
    16    13    14    1
    17    14    15    1
    18    15    16    1
    19    16    17    1
    20    17    18    1
    21    12     1    1
    22    18    13    1
    23    11     3    1
    24    10     6    1
    25    21    22    1
@<TRIPOS>MOLECULE
*****
 22 25 0 0 0
SMALL
GASTEIGER

@<TRIPOS>ATOM
      1 C          62.7126   88.9352   11.9164 C.2     1  UNL1        0.3271
      2 N          63.5324   88.8854   13.1715 N.2     1  UNL1       -0.0380
      3 C          63.7659   87.4442   13.5158 C.2     1  UNL1        0.2637
      4 C          64.5063   86.7889   14.6437 C.2     1  UNL1        0.2821
      5 N          64.5713   85.2927   14.7292 N.2     1  UNL1       -0.0268
      6 C          63.8959   84.4519   13.6868 C.2     1  UNL1        0.3760
      7 N          63.7895   82.9662   13.5099 N.2     1  UNL1       -0.0306
      8 C          62.9833   82.7033   12.2726 C.2     1  UNL1        0.2361
      9 C          62.5914   84.0265   11.6848 C.2     1  UNL1        0.0583
     10 C          63.1555   85.1072   12.5588 C.2     1  UNL1        0.1203
     11 C          63.0905   86.6034   12.4733 C.3     1  UNL1        0.2597
     12 N          62.4395   87.5249   11.4848 N.pl3   1  UNL1       -0.1861
     13 C          61.6534   87.1090   10.2769 C.3     1  UNL1        0.1900
     14 C          62.3204   86.3373    9.1771 C.3     1  UNL1        0.0518
     15 C          61.5343   85.9214    7.9692 C.3     1  UNL1        0.0363
     16 C          60.0812   86.2774    7.8610 C.3     1  UNL1        0.1425
     17 O          59.4141   87.0491    8.9608 O.3     1  UNL1       -0.3495
     18 C          60.2002   87.4649   10.1687 C.3     1  UNL1        0.1884
     19 C          63.1462   90.8635   10.2300 C.3     1  UNL1        0.0450
     20 C          62.2476   90.1774   11.2158 C.3     1  UNL1        0.2165
     21 O          60.8840   90.7334   11.5010 O.3     1  UNL1       -0.3737
     22 H          60.4374   90.1745   12.1561 H       1  UNL1        0.2111
@<TRIPOS>BOND
     1    20    19    1
     2    20    21    1
     3    20     1    1
     4     1     2    2
     5     2     3    1
     6     3     4    2
     7     4     5    1
     8     5     6    2
     9     6     7    1
    10     7     8    2
    11     8     9    1
    12     9    10    2
    13    10    11    1
    14    11    12    1
    15    13    12    1
    16    13    14    1
    17    14    15    1
    18    15    16    1
    19    16    17    1
    20    17    18    1
    21    12     1    1
    22    18    13    1
    23    11     3    1
    24    10     6    1
    25    21    22    1
@<TRIPOS>MOLECULE
*****
 22 25 0 0 0
SMALL
GASTEIGER

@<TRIPOS>ATOM
      1 C          63.9717   86.5211   13.8572 C.2     1  UNL1        0.3271
      2 N          63.8757   88.0054   13.6632 N.2     1  UNL1       -0.0380
      3 C          63.1061   88.2591   12.4009 C.2     1  UNL1        0.2637
      4 C          62.7019   89.5273   11.7095 C.2     1  UNL1        0.2821
      5 N          61.9181   89.4682   10.4319 N.2     1  UNL1       -0.0268
      6 C          61.5385   88.1406    9.8458 C.2     1  UNL1        0.3760
      7 N          60.7747   87.7711    8.6088 N.2     1  UNL1       -0.0306
      8 C          60.7069   86.2745    8.5358 C.2     1  UNL1        0.2361
      9 C          61.4287   85.7190    9.7276 C.2     1  UNL1        0.0583
     10 C          61.9427   86.8723   10.5373 C.2     1  UNL1        0.1203
     11 C          62.7264   86.9316   11.8148 C.3     1  UNL1        0.2597
     12 N          63.2614   85.8574   12.7148 N.pl3   1  UNL1       -0.1861
     13 C          63.1124   84.3792   12.5087 C.3     1  UNL1        0.1900
     14 C          63.7286   83.7234   11.3087 C.3     1  UNL1        0.0518
     15 C          63.5795   82.2450   11.1026 C.3     1  UNL1        0.0363
     16 C          62.8142   81.4227   12.0965 C.3     1  UNL1        0.1425
     17 O          62.1979   82.0785   13.2965 O.3     1  UNL1       -0.3495
     18 C          62.3470   83.5567   13.5026 C.3     1  UNL1        0.1884
     19 C          63.9216   85.5796   16.2782 C.3     1  UNL1        0.0450
     20 C          64.6576   85.8231   14.9940 C.3     1  UNL1        0.2165
     21 O          66.0794   85.3686   14.8466 O.3     1  UNL1       -0.3737
     22 H          66.4036   85.6020   13.9627 H       1  UNL1        0.2111
@<TRIPOS>BOND
     1    20    19    1
     2    20    21    1
     3    20     1    1
     4     1     2    2
     5     2     3    1
     6     3     4    2
     7     4     5    1
     8     5     6    2
     9     6     7    1
    10     7     8    2
    11     8     9    1
    12     9    10    2
    13    10    11    1
    14    11    12    1
    15    13    12    1
    16    13    14    1
    17    14    15    1
    18    15    16    1
    19    16    17    1
    20    17    18    1
    21    12     1    1
    22    18    13    1
    23    11     3    1
    24    10     6    1
    25    21    22    1
@<TRIPOS>MOLECULE
*****
 22 25 0 0 0
SMALL
GASTEIGER

@<TRIPOS>ATOM
      1 C          65.3806   91.8218   14.1557 C.2     1  UNL1        0.3271
      2 N          65.4667   92.6506   12.9084 N.2     1  UNL1       -0.0380
      3 C          64.5746   92.0280   11.8756 C.2     1  UNL1        0.2637
      4 C          64.2604   92.4093   10.4594 C.2     1  UNL1        0.2821
      5 N          63.3087   91.5770    9.6521 N.2     1  UNL1       -0.0268
      6 C          62.6713   90.3634   10.2611 C.2     1  UNL1        0.3760
      7 N          61.7017   89.3579    9.7146 N.2     1  UNL1       -0.0306
      8 C          61.4167   88.3551   10.7931 C.2     1  UNL1        0.2361
      9 C          62.2102   88.7409   12.0062 C.2     1  UNL1        0.0583
     10 C          62.9856   89.9821   11.6774 C.2     1  UNL1        0.1203
     11 C          63.9372   90.8144   12.4846 C.3     1  UNL1        0.2597
     12 N          64.4354   90.6869   13.8938 N.pl3   1  UNL1       -0.1861
     13 C          64.0551   89.6132   14.8697 C.3     1  UNL1        0.1900
     14 C          63.3407   89.9721   16.1389 C.3     1  UNL1        0.0518
     15 C          62.9604   88.8982   17.1148 C.3     1  UNL1        0.0363
     16 C          63.2944   87.4656   16.8215 C.3     1  UNL1        0.1425
     17 O          64.0088   87.1068   15.5522 O.3     1  UNL1       -0.3495
     18 C          64.3891   88.1805   14.5764 C.3     1  UNL1        0.1884
     19 C          67.5558   91.6991   15.5711 C.3     1  UNL1        0.0450
     20 C          66.1115   92.0821   15.4394 C.3     1  UNL1        0.2165
     21 O          65.3981   92.7255   16.5914 O.3     1  UNL1       -0.3737
     22 H          64.4787   92.9073   16.3415 H       1  UNL1        0.2111
@<TRIPOS>BOND
     1    20    19    1
     2    20    21    1
     3    20     1    1
     4     1     2    2
     5     2     3    1
     6     3     4    2
     7     4     5    1
     8     5     6    2
     9     6     7    1
    10     7     8    2
    11     8     9    1
    12     9    10    2
    13    10    11    1
    14    11    12    1
    15    13    12    1
    16    13    14    1
    17    14    15    1
    18    15    16    1
    19    16    17    1
    20    17    18    1
    21    12     1    1
    22    18    13    1
    23    11     3    1
    24    10     6    1
    25    21    22    1
@<TRIPOS>MOLECULE
*****
 22 25 0 0 0
SMALL
GASTEIGER

@<TRIPOS>ATOM
      1 C          63.6735   90.3309   15.3781 C.2     1  UNL1        0.3271
      2 N          64.6305   91.2268   16.1071 N.2     1  UNL1       -0.0380
      3 C          65.3689   92.0434   15.0882 C.2     1  UNL1        0.2637
      4 C          66.4324   93.0926   15.2220 C.2     1  UNL1        0.2821
      5 N          66.9952   93.7506   13.9971 N.2     1  UNL1       -0.0268
      6 C          66.4944   93.3594   12.6384 C.2     1  UNL1        0.3760
      7 N          66.8571   93.8301   11.2612 N.2     1  UNL1       -0.0306
      8 C          66.0177   93.0718   10.2762 C.2     1  UNL1        0.2361
      9 C          65.1362   92.1324   11.0446 C.2     1  UNL1        0.0583
     10 C          65.4308   92.3101   12.5046 C.2     1  UNL1        0.1203
     11 C          64.8680   91.6521   13.7295 C.3     1  UNL1        0.2597
     12 N          63.8203   90.5938   13.9086 N.pl3   1  UNL1       -0.1861
     13 C          63.0538   89.9171   12.8111 C.3     1  UNL1        0.1900
     14 C          63.3230   88.4779   12.4855 C.3     1  UNL1        0.0518
     15 C          62.5565   87.8012   11.3879 C.3     1  UNL1        0.0363
     16 C          61.5209   88.5638   10.6159 C.3     1  UNL1        0.1425
     17 O          61.2518   90.0031   10.9415 O.3     1  UNL1       -0.3495
     18 C          62.0182   90.6798   12.0391 C.3     1  UNL1        0.1884
     19 C          63.2730   88.2406   16.8681 C.3     1  UNL1        0.0450
     20 C          62.7345   89.3453   16.0080 C.3     1  UNL1        0.2165
     21 O          61.2571   89.4643   15.7778 O.3     1  UNL1       -0.3737
     22 H          61.0796   90.2257   15.2037 H       1  UNL1        0.2111
@<TRIPOS>BOND
     1    20    19    1
     2    20    21    1
     3    20     1    1
     4     1     2    2
     5     2     3    1
     6     3     4    2
     7     4     5    1
     8     5     6    2
     9     6     7    1
    10     7     8    2
    11     8     9    1
    12     9    10    2
    13    10    11    1
    14    11    12    1
    15    13    12    1
    16    13    14    1
    17    14    15    1
    18    15    16    1
    19    16    17    1
    20    17    18    1
    21    12     1    1
    22    18    13    1
    23    11     3    1
    24    10     6    1
    25    21    22    1
@<TRIPOS>MOLECULE
*****
 22 25 0 0 0
SMALL
GASTEIGER

@<TRIPOS>ATOM
      1 C          63.7072   91.1201   11.7896 C.2     1  UNL1        0.3271
      2 N          63.1105   90.6295   13.0754 N.2     1  UNL1       -0.0380
      3 C          63.9643   91.1291   14.2030 C.2     1  UNL1        0.2637
      4 C          63.8633   90.9594   15.6899 C.2     1  UNL1        0.2821
      5 N          64.8866   91.5891   16.5880 N.2     1  UNL1       -0.0268
      6 C          66.0109   92.3885   15.9990 C.2     1  UNL1        0.3760
      7 N          67.1589   93.1207   16.6282 N.2     1  UNL1       -0.0306
      8 C          67.9694   93.7430   15.5301 C.2     1  UNL1        0.2361
      9 C          67.3224   93.3953   14.2223 C.2     1  UNL1        0.0583
     10 C          66.1119   92.5582   14.5121 C.2     1  UNL1        0.1203
     11 C          65.0886   91.9285   13.6141 C.3     1  UNL1        0.2597
     12 N          64.9297   91.9229   12.1225 N.pl3   1  UNL1       -0.1861
     13 C          65.8344   92.6011   11.1369 C.3     1  UNL1        0.1900
     14 C          67.0718   91.9052   10.6524 C.3     1  UNL1        0.0518
     15 C          67.9765   92.5835    9.6668 C.3     1  UNL1        0.0363
     16 C          67.6439   93.9576    9.1656 C.3     1  UNL1        0.1425
     17 O          66.4066   94.6535    9.6501 O.3     1  UNL1       -0.3495
     18 C          65.5019   93.9753   10.6357 C.3     1  UNL1        0.1884
     19 C          62.6461   89.4952   10.0623 C.3     1  UNL1        0.0450
     20 C          63.1747   90.8545   10.4127 C.3     1  UNL1        0.2165
     21 O          63.1708   91.9483    9.3862 O.3     1  UNL1       -0.3737
     22 H          63.5435   92.7560    9.7730 H       1  UNL1        0.2111
@<TRIPOS>BOND
     1    20    19    1
     2    20    21    1
     3    20     1    1
     4     1     2    2
     5     2     3    1
     6     3     4    2
     7     4     5    1
     8     5     6    2
     9     6     7    1
    10     7     8    2
    11     8     9    1
    12     9    10    2
    13    10    11    1
    14    11    12    1
    15    13    12    1
    16    13    14    1
    17    14    15    1
    18    15    16    1
    19    16    17    1
    20    17    18    1
    21    12     1    1
    22    18    13    1
    23    11     3    1
    24    10     6    1
    25    21    22    1
@<TRIPOS>MOLECULE
*****
 22 25 0 0 0
SMALL
GASTEIGER

@<TRIPOS>ATOM
      1 C          62.3419   89.1498   11.2804 C.2     1  UNL1        0.3271
      2 N          61.9739   87.9043   10.5298 N.2     1  UNL1       -0.0380
      3 C          62.4645   86.7260   11.3179 C.2     1  UNL1        0.2637
      4 C          62.3868   85.2491   11.0684 C.2     1  UNL1        0.2821
      5 N          62.9803   84.2892   12.0567 N.2     1  UNL1       -0.0268
      6 C          63.6514   84.8065   13.2944 C.2     1  UNL1        0.3760
      7 N          64.3218   84.1071   14.4395 N.2     1  UNL1       -0.0306
      8 C          64.8138   85.1519   15.3968 C.2     1  UNL1        0.2361
      9 C          64.4475   86.4970   14.8432 C.2     1  UNL1        0.0583
     10 C          63.7291   86.2836   13.5439 C.2     1  UNL1        0.1203
     11 C          63.1357   87.2433   12.5556 C.3     1  UNL1        0.2597
     12 N          63.0599   88.7413   12.5325 N.pl3   1  UNL1       -0.1861
     13 C          63.6061   89.6680   13.5778 C.3     1  UNL1        0.1900
     14 C          64.8229   90.4949   13.2851 C.3     1  UNL1        0.0518
     15 C          65.3691   91.4217   14.3305 C.3     1  UNL1        0.0363
     16 C          64.6986   91.5214   15.6685 C.3     1  UNL1        0.1425
     17 O          63.4819   90.6945   15.9613 O.3     1  UNL1       -0.3495
     18 C          62.9356   89.7678   14.9159 C.3     1  UNL1        0.1884
     19 C          63.0737   91.3459   10.1008 C.3     1  UNL1        0.0450
     20 C          62.0441   90.5566   10.8539 C.3     1  UNL1        0.2165
     21 O          60.7167   91.1743   11.1804 O.3     1  UNL1       -0.3737
     22 H          60.1730   90.5344   11.6660 H       1  UNL1        0.2111
@<TRIPOS>BOND
     1    20    19    1
     2    20    21    1
     3    20     1    1
     4     1     2    2
     5     2     3    1
     6     3     4    2
     7     4     5    1
     8     5     6    2
     9     6     7    1
    10     7     8    2
    11     8     9    1
    12     9    10    2
    13    10    11    1
    14    11    12    1
    15    13    12    1
    16    13    14    1
    17    14    15    1
    18    15    16    1
    19    16    17    1
    20    17    18    1
    21    12     1    1
    22    18    13    1
    23    11     3    1
    24    10     6    1
    25    21    22    1
