@<TRIPOS>MOLECULE
*****
 22 25 0 0 0
SMALL
GASTEIGER

@<TRIPOS>ATOM
      1 O          63.1806   82.6313   15.0215 O.2     1  UNL1       -0.2448
      2 C          63.2441   83.8272   14.1184 C.2     1  UNL1        0.3428
      3 C          63.5801   83.6539   12.6668 C.2     1  UNL1        0.0959
      4 C          64.5157   82.6306   12.0944 C.2     1  UNL1        0.1049
      5 N          64.5533   82.8178   10.6066 N.2     1  UNL1       -0.2476
      6 C          63.6410   83.9567   10.2595 C.2     1  UNL1        0.0637
      7 C          63.2803   84.5901    8.9485 C.3     1  UNL1        0.0726
      8 C          62.3181   85.7402    8.9108 C.2     1  UNL1       -0.0084
      9 C          61.7167   86.2569   10.1841 C.2     1  UNL1        0.0538
     10 CL         60.7545   87.4071   10.1463 Cl      1  UNL1       -0.0826
     11 C          62.0774   85.6236   11.4950 C.2     1  UNL1        0.0125
     12 C          63.0396   84.4735   11.5328 C.2     1  UNL1        0.0225
     13 O          62.9716   85.1965   14.6669 O.3     1  UNL1       -0.4454
     14 C          64.1078   86.0566   15.1352 C.3     1  UNL1        0.2087
     15 C          63.9138   87.5358   15.2911 C.3     1  UNL1        0.0445
     16 C          64.3210   88.4661   14.1871 C.3     1  UNL1        0.0210
     17 C          64.1270   89.9453   14.3431 C.3     1  UNL1        0.0722
     18 N          63.5258   90.4943   15.6030 N.3     1  UNL1       -0.2727
     19 C          63.1186   89.5640   16.7069 C.3     1  UNL1        0.0722
     20 C          63.3126   88.0847   16.5510 C.3     1  UNL1        0.0210
     21 C          63.6125   89.6764   15.5634 C.3     1  UNL1        0.0722
     22 C          63.7879   88.3389   15.4225 C.3     1  UNL1        0.0210
@<TRIPOS>BOND
     1     1     2    2
     2     2    13    1
     3    13    14    1
     4    14    15    1
     5    15    16    1
     6    16    17    1
     7    17    18    1
     8    18    19    1
     9    19    20    1
    10    18    21    1
    11    21    22    1
    12     2     3    1
    13     3     4    2
    14     4     5    1
    15     5     6    2
    16     6     7    1
    17     7     8    1
    18     8     9    2
    19     9    10    1
    20     9    11    1
    21    11    12    2
    22    20    15    1
    23    12     3    1
    24    22    15    1
    25    12     6    1
@<TRIPOS>MOLECULE
*****
 22 25 0 0 0
SMALL
GASTEIGER

@<TRIPOS>ATOM
      1 O          63.3731   82.7054   15.0100 O.2     1  UNL1       -0.2448
      2 C          63.3869   83.9049   14.1095 C.2     1  UNL1        0.3428
      3 C          63.6649   83.7401   12.6448 C.2     1  UNL1        0.0959
      4 C          64.6158   82.7543   12.0333 C.2     1  UNL1        0.1049
      5 N          64.5794   82.9371   10.5449 N.2     1  UNL1       -0.2476
      6 C          63.6060   84.0359   10.2365 C.2     1  UNL1        0.0637
      7 C          63.1612   84.6486    8.9417 C.3     1  UNL1        0.0726
      8 C          62.1513   85.7576    8.9446 C.2     1  UNL1       -0.0084
      9 C          61.5861   86.2539   10.2424 C.2     1  UNL1        0.0538
     10 CL         60.5761   87.3630   10.2453 Cl      1  UNL1       -0.0826
     11 C          62.0309   85.6412   11.5373 C.2     1  UNL1        0.0125
     12 C          63.0408   84.5322   11.5343 C.2     1  UNL1        0.0225
     13 O          63.1227   85.2695   14.6739 O.3     1  UNL1       -0.4454
     14 C          64.2609   86.2186   14.9055 C.3     1  UNL1        0.2087
     15 C          63.9846   87.6625   15.2032 C.3     1  UNL1        0.0445
     16 C          63.3589   88.0526   16.5094 C.3     1  UNL1        0.0210
     17 C          63.0826   89.4966   16.8070 C.3     1  UNL1        0.0722
     18 N          63.4320   90.5505   15.7984 N.3     1  UNL1       -0.2727
     19 C          64.0578   90.1604   14.4922 C.3     1  UNL1        0.0722
     20 C          64.3341   88.7163   14.1946 C.3     1  UNL1        0.0210
     21 C          63.6023   89.7722   15.5905 C.3     1  UNL1        0.0722
     22 C          63.8522   88.4666   15.3213 C.3     1  UNL1        0.0210
@<TRIPOS>BOND
     1     1     2    2
     2     2    13    1
     3    13    14    1
     4    14    15    1
     5    15    16    1
     6    16    17    1
     7    17    18    1
     8    18    19    1
     9    19    20    1
    10    18    21    1
    11    21    22    1
    12     2     3    1
    13     3     4    2
    14     4     5    1
    15     5     6    2
    16     6     7    1
    17     7     8    1
    18     8     9    2
    19     9    10    1
    20     9    11    1
    21    11    12    2
    22    20    15    1
    23    12     3    1
    24    22    15    1
    25    12     6    1
@<TRIPOS>MOLECULE
*****
 22 25 0 0 0
SMALL
GASTEIGER

@<TRIPOS>ATOM
      1 O          63.1958   88.2417   16.3763 O.2     1  UNL1       -0.2448
      2 C          64.0142   88.2108   15.1197 C.2     1  UNL1        0.3428
      3 C          64.1474   89.4470   14.2807 C.2     1  UNL1        0.0959
      4 C          64.8235   90.7219   14.6902 C.2     1  UNL1        0.1049
      5 N          64.7218   91.6882   13.5475 N.2     1  UNL1       -0.2476
      6 C          63.9829   91.0106   12.4317 C.2     1  UNL1        0.0637
      7 C          63.5875   91.4759   11.0617 C.3     1  UNL1        0.0726
      8 C          62.8371   90.5561   10.1448 C.2     1  UNL1       -0.0084
      9 C          62.4820   89.1710   10.5979 C.2     1  UNL1        0.0538
     10 CL         61.7316   88.2511    9.6810 Cl      1  UNL1       -0.0826
     11 C          62.8775   88.7057   11.9680 C.2     1  UNL1        0.0125
     12 C          63.6279   89.6255   12.8849 C.2     1  UNL1        0.0225
     13 O          64.6995   86.9434   14.7020 O.3     1  UNL1       -0.4454
     14 C          63.9508   85.6438   14.7234 C.3     1  UNL1        0.2087
     15 C          63.7634   84.8653   13.4551 C.3     1  UNL1        0.0445
     16 C          62.7310   85.2964   12.4560 C.3     1  UNL1        0.0210
     17 C          62.5437   84.5178   11.1876 C.3     1  UNL1        0.0722
     18 N          63.3888   83.3081   10.9183 N.3     1  UNL1       -0.2727
     19 C          64.4213   82.8770   11.9174 C.3     1  UNL1        0.0722
     20 C          64.6086   83.6556   13.1859 C.3     1  UNL1        0.0210
     21 C          63.5279   83.7028   11.6274 C.3     1  UNL1        0.0722
     22 C          63.6973   84.4068   12.7743 C.3     1  UNL1        0.0210
@<TRIPOS>BOND
     1     1     2    2
     2     2    13    1
     3    13    14    1
     4    14    15    1
     5    15    16    1
     6    16    17    1
     7    17    18    1
     8    18    19    1
     9    19    20    1
    10    18    21    1
    11    21    22    1
    12     2     3    1
    13     3     4    2
    14     4     5    1
    15     5     6    2
    16     6     7    1
    17     7     8    1
    18     8     9    2
    19     9    10    1
    20     9    11    1
    21    11    12    2
    22    20    15    1
    23    12     3    1
    24    22    15    1
    25    12     6    1
@<TRIPOS>MOLECULE
*****
 22 25 0 0 0
SMALL
GASTEIGER

@<TRIPOS>ATOM
      1 O          63.8474   86.9365   13.4461 O.2     1  UNL1       -0.2448
      2 C          62.8453   85.8953   13.0444 C.2     1  UNL1        0.3428
      3 C          62.7770   84.5939   13.7871 C.2     1  UNL1        0.0959
      4 C          62.6644   84.4322   15.2741 C.2     1  UNL1        0.1049
      5 N          62.6272   82.9640   15.5792 N.2     1  UNL1       -0.2476
      6 C          62.7168   82.2183   14.2807 C.2     1  UNL1        0.0637
      7 C          62.7260   80.7522   13.9639 C.3     1  UNL1        0.0726
      8 C          62.8278   80.2935   12.5394 C.2     1  UNL1       -0.0084
      9 C          62.9204   81.3008   11.4318 C.2     1  UNL1        0.0538
     10 CL         63.0223   80.8419   10.0073 Cl      1  UNL1       -0.0826
     11 C          62.9112   82.7669   11.7487 C.2     1  UNL1        0.0125
     12 C          62.8094   83.2256   13.1732 C.2     1  UNL1        0.0225
     13 O          61.9113   86.1555   11.8998 O.3     1  UNL1       -0.4454
     14 C          62.4365   86.7359   10.6202 C.3     1  UNL1        0.2087
     15 C          61.9549   86.2051    9.3026 C.3     1  UNL1        0.0445
     16 C          62.8903   85.4376    8.4160 C.3     1  UNL1        0.0210
     17 C          62.4086   84.9068    7.0984 C.3     1  UNL1        0.0722
     18 N          60.9915   85.1433    6.6673 N.3     1  UNL1       -0.2727
     19 C          60.0561   85.9107    7.5538 C.3     1  UNL1        0.0722
     20 C          60.5378   86.4416    8.8716 C.3     1  UNL1        0.0210
     21 C          61.2098   85.4537    7.3981 C.3     1  UNL1        0.0722
     22 C          61.6452   85.9337    8.5895 C.3     1  UNL1        0.0210
@<TRIPOS>BOND
     1     1     2    2
     2     2    13    1
     3    13    14    1
     4    14    15    1
     5    15    16    1
     6    16    17    1
     7    17    18    1
     8    18    19    1
     9    19    20    1
    10    18    21    1
    11    21    22    1
    12     2     3    1
    13     3     4    2
    14     4     5    1
    15     5     6    2
    16     6     7    1
    17     7     8    1
    18     8     9    2
    19     9    10    1
    20     9    11    1
    21    11    12    2
    22    20    15    1
    23    12     3    1
    24    22    15    1
    25    12     6    1
@<TRIPOS>MOLECULE
*****
 22 25 0 0 0
SMALL
GASTEIGER

@<TRIPOS>ATOM
      1 O          60.0655   90.2060   11.5360 O.2     1  UNL1       -0.2448
      2 C          61.2696   90.0516   10.6550 C.2     1  UNL1        0.3428
      3 C          62.5610   90.7183   11.0260 C.2     1  UNL1        0.0959
      4 C          63.4153   91.5524   10.1180 C.2     1  UNL1        0.1049
      5 N          64.6071   92.0176   10.9011 N.2     1  UNL1       -0.2476
      6 C          64.4894   91.4710   12.2930 C.2     1  UNL1        0.0637
      7 C          65.3702   91.6008   13.5002 C.3     1  UNL1        0.0726
      8 C          64.9865   90.9276   14.7845 C.2     1  UNL1       -0.0084
      9 C          63.7219   90.1247   14.8617 C.2     1  UNL1        0.0538
     10 CL         63.3382   89.4514   16.1461 Cl      1  UNL1       -0.0826
     11 C          62.8410   89.9949   13.6546 C.2     1  UNL1        0.0125
     12 C          63.2247   90.6681   12.3702 C.2     1  UNL1        0.0225
     13 O          61.1822   89.2304    9.4027 O.3     1  UNL1       -0.4454
     14 C          60.5913   87.8524    9.4491 C.3     1  UNL1        0.2087
     15 C          61.4539   86.6782    9.8054 C.3     1  UNL1        0.0445
     16 C          62.2908   86.0152    8.7517 C.3     1  UNL1        0.0210
     17 C          63.1534   84.8410    9.1081 C.3     1  UNL1        0.0722
     18 N          63.1793   84.3296   10.5180 N.3     1  UNL1       -0.2727
     19 C          62.3424   84.9926   11.5716 C.3     1  UNL1        0.0722
     20 C          61.4797   86.1669   11.2153 C.3     1  UNL1        0.0210
     21 C          62.6909   84.9760   10.3706 C.3     1  UNL1        0.0722
     22 C          61.9108   86.0378   10.0485 C.3     1  UNL1        0.0210
@<TRIPOS>BOND
     1     1     2    2
     2     2    13    1
     3    13    14    1
     4    14    15    1
     5    15    16    1
     6    16    17    1
     7    17    18    1
     8    18    19    1
     9    19    20    1
    10    18    21    1
    11    21    22    1
    12     2     3    1
    13     3     4    2
    14     4     5    1
    15     5     6    2
    16     6     7    1
    17     7     8    1
    18     8     9    2
    19     9    10    1
    20     9    11    1
    21    11    12    2
    22    20    15    1
    23    12     3    1
    24    22    15    1
    25    12     6    1
@<TRIPOS>MOLECULE
*****
 22 25 0 0 0
SMALL
GASTEIGER

@<TRIPOS>ATOM
      1 O          63.1404   84.7694    8.1214 O.2     1  UNL1       -0.2448
      2 C          62.5356   85.4082    9.3362 C.2     1  UNL1        0.3428
      3 C          61.5569   86.5346    9.1827 C.2     1  UNL1        0.0959
      4 C          60.4029   86.5756    8.2254 C.2     1  UNL1        0.1049
      5 N          59.6933   87.8840    8.4106 N.2     1  UNL1       -0.2476
      6 C          60.4087   88.6517    9.4825 C.2     1  UNL1        0.0637
      7 C          60.1601   90.0024   10.0856 C.3     1  UNL1        0.0726
      8 C          61.0634   90.5191   11.1659 C.2     1  UNL1       -0.0084
      9 C          62.2152   89.6851   11.6431 C.2     1  UNL1        0.0538
     10 CL         63.1185   90.2018   12.7235 Cl      1  UNL1       -0.0826
     11 C          62.4638   88.3344   11.0400 C.2     1  UNL1        0.0125
     12 C          61.5605   87.8177    9.9597 C.2     1  UNL1        0.0225
     13 O          62.9094   84.9207   10.7047 O.3     1  UNL1       -0.4454
     14 C          63.4652   83.5389   10.8828 C.3     1  UNL1        0.2087
     15 C          63.0235   82.6966   12.0427 C.3     1  UNL1        0.0445
     16 C          62.8843   81.2118   11.8815 C.3     1  UNL1        0.0210
     17 C          62.4427   80.3697   13.0415 C.3     1  UNL1        0.0722
     18 N          62.1401   81.0122   14.3628 N.3     1  UNL1       -0.2727
     19 C          62.2793   82.4970   14.5239 C.3     1  UNL1        0.0722
     20 C          62.7210   83.3393   13.3639 C.3     1  UNL1        0.0210
     21 C          62.3790   81.5149   13.7559 C.3     1  UNL1        0.0722
     22 C          62.7783   82.2766   12.7071 C.3     1  UNL1        0.0210
@<TRIPOS>BOND
     1     1     2    2
     2     2    13    1
     3    13    14    1
     4    14    15    1
     5    15    16    1
     6    16    17    1
     7    17    18    1
     8    18    19    1
     9    19    20    1
    10    18    21    1
    11    21    22    1
    12     2     3    1
    13     3     4    2
    14     4     5    1
    15     5     6    2
    16     6     7    1
    17     7     8    1
    18     8     9    2
    19     9    10    1
    20     9    11    1
    21    11    12    2
    22    20    15    1
    23    12     3    1
    24    22    15    1
    25    12     6    1
@<TRIPOS>MOLECULE
*****
 22 25 0 0 0
SMALL
GASTEIGER

@<TRIPOS>ATOM
      1 O          64.6626   82.5960   10.1057 O.2     1  UNL1       -0.2448
      2 C          63.6317   83.4675   10.7595 C.2     1  UNL1        0.3428
      3 C          63.1712   83.1667   12.1550 C.2     1  UNL1        0.0959
      4 C          62.4851   81.9112   12.6057 C.2     1  UNL1        0.1049
      5 N          62.2058   82.0373   14.0741 N.2     1  UNL1       -0.2476
      6 C          62.7192   83.3706   14.5309 C.2     1  UNL1        0.0637
      7 C          62.7205   84.0393   15.8736 C.3     1  UNL1        0.0726
      8 C          63.3184   85.4060   16.0302 C.2     1  UNL1       -0.0084
      9 C          63.9150   86.1040   14.8441 C.2     1  UNL1        0.0538
     10 CL         64.5129   87.4708   15.0008 Cl      1  UNL1       -0.0826
     11 C          63.9137   85.4354   13.5014 C.2     1  UNL1        0.0125
     12 C          63.3158   84.0687   13.3448 C.2     1  UNL1        0.0225
     13 O          63.0612   84.6399   10.0177 O.3     1  UNL1       -0.4454
     14 C          61.7802   85.2687   10.4801 C.3     1  UNL1        0.2087
     15 C          61.3734   86.6140    9.9562 C.3     1  UNL1        0.0445
     16 C          60.2890   86.7210    8.9254 C.3     1  UNL1        0.0210
     17 C          59.8822   88.0664    8.4015 C.3     1  UNL1        0.0722
     18 N          60.5598   89.3049    8.9085 N.3     1  UNL1       -0.2727
     19 C          61.6442   89.1980    9.9393 C.3     1  UNL1        0.0722
     20 C          62.0510   87.8525   10.4632 C.3     1  UNL1        0.0210
     21 C          60.8169   88.5897    9.2253 C.3     1  UNL1        0.0722
     22 C          61.1848   87.3732    9.6991 C.3     1  UNL1        0.0210
@<TRIPOS>BOND
     1     1     2    2
     2     2    13    1
     3    13    14    1
     4    14    15    1
     5    15    16    1
     6    16    17    1
     7    17    18    1
     8    18    19    1
     9    19    20    1
    10    18    21    1
    11    21    22    1
    12     2     3    1
    13     3     4    2
    14     4     5    1
    15     5     6    2
    16     6     7    1
    17     7     8    1
    18     8     9    2
    19     9    10    1
    20     9    11    1
    21    11    12    2
    22    20    15    1
    23    12     3    1
    24    22    15    1
    25    12     6    1
@<TRIPOS>MOLECULE
*****
 22 25 0 0 0
SMALL
GASTEIGER

@<TRIPOS>ATOM
      1 O          65.3276   84.0561   14.5716 O.2     1  UNL1       -0.2448
      2 C          64.2976   85.0929   14.2339 C.2     1  UNL1        0.3428
      3 C          63.7769   86.0086   15.3019 C.2     1  UNL1        0.0959
      4 C          63.0858   85.5870   16.5647 C.2     1  UNL1        0.1049
      5 N          62.7376   86.8244   17.3377 N.2     1  UNL1       -0.2476
      6 C          63.2135   88.0107   16.5527 C.2     1  UNL1        0.0637
      7 C          63.1450   89.4849   16.8211 C.3     1  UNL1        0.0726
      8 C          63.7188   90.4548   15.8312 C.2     1  UNL1       -0.0084
      9 C          64.3611   89.9506   14.5729 C.2     1  UNL1        0.0538
     10 CL         64.9349   90.9206   13.5830 Cl      1  UNL1       -0.0826
     11 C          64.4296   88.4764   14.3046 C.2     1  UNL1        0.0125
     12 C          63.8559   87.5065   15.2945 C.2     1  UNL1        0.0225
     13 O          63.7883   85.2142   12.8282 O.3     1  UNL1       -0.4454
     14 C          62.5807   84.4352   12.3982 C.3     1  UNL1        0.2087
     15 C          62.5129   82.9579   12.6489 C.3     1  UNL1        0.0445
     16 C          62.0043   82.4427   13.9626 C.3     1  UNL1        0.0210
     17 C          61.9365   80.9653   14.2133 C.3     1  UNL1        0.0722
     18 N          62.3773   80.0032   13.1502 N.3     1  UNL1       -0.2727
     19 C          62.8859   80.5184   11.8365 C.3     1  UNL1        0.0722
     20 C          62.9537   81.9958   11.5858 C.3     1  UNL1        0.0210
     21 C          62.4329   80.8040   12.9668 C.3     1  UNL1        0.0722
     22 C          62.4942   82.1398   12.7400 C.3     1  UNL1        0.0210
@<TRIPOS>BOND
     1     1     2    2
     2     2    13    1
     3    13    14    1
     4    14    15    1
     5    15    16    1
     6    16    17    1
     7    17    18    1
     8    18    19    1
     9    19    20    1
    10    18    21    1
    11    21    22    1
    12     2     3    1
    13     3     4    2
    14     4     5    1
    15     5     6    2
    16     6     7    1
    17     7     8    1
    18     8     9    2
    19     9    10    1
    20     9    11    1
    21    11    12    2
    22    20    15    1
    23    12     3    1
    24    22    15    1
    25    12     6    1
@<TRIPOS>MOLECULE
*****
 22 25 0 0 0
SMALL
GASTEIGER

@<TRIPOS>ATOM
      1 O          62.1739   90.6860   10.9152 O.2     1  UNL1       -0.2448
      2 C          62.4127   89.3706   11.5953 C.2     1  UNL1        0.3428
      3 C          61.9559   88.0973   10.9472 C.2     1  UNL1        0.0959
      4 C          62.2836   86.7074   11.4063 C.2     1  UNL1        0.1049
      5 N          61.6213   85.7415   10.4690 N.2     1  UNL1       -0.2476
      6 C          60.8843   86.5344    9.4307 C.2     1  UNL1        0.0637
      7 C          60.0517   86.1188    8.2543 C.3     1  UNL1        0.0726
      8 C          59.4259   87.1591    7.3734 C.2     1  UNL1       -0.0084
      9 C          59.6327   88.6151    7.6690 C.2     1  UNL1        0.0538
     10 CL         59.0068   89.6555    6.7880 Cl      1  UNL1       -0.0826
     11 C          60.4653   89.0308    8.8453 C.2     1  UNL1        0.0125
     12 C          61.0911   87.9904    9.7262 C.2     1  UNL1        0.0225
     13 O          63.1085   89.3285   12.9236 O.3     1  UNL1       -0.4454
     14 C          63.4124   90.6041   13.6518 C.3     1  UNL1        0.2087
     15 C          64.7556   91.2538   13.4979 C.3     1  UNL1        0.0445
     16 C          65.0363   92.1234   12.3084 C.3     1  UNL1        0.0210
     17 C          66.3795   92.7731   12.1546 C.3     1  UNL1        0.0722
     18 N          67.4422   92.5531   13.1902 N.3     1  UNL1       -0.2727
     19 C          67.1615   91.6834   14.3797 C.3     1  UNL1        0.0722
     20 C          65.8182   91.0337   14.5335 C.3     1  UNL1        0.0210
     21 C          66.7213   92.1760   13.3177 C.3     1  UNL1        0.0722
     22 C          65.5068   91.5885   13.4569 C.3     1  UNL1        0.0210
@<TRIPOS>BOND
     1     1     2    2
     2     2    13    1
     3    13    14    1
     4    14    15    1
     5    15    16    1
     6    16    17    1
     7    17    18    1
     8    18    19    1
     9    19    20    1
    10    18    21    1
    11    21    22    1
    12     2     3    1
    13     3     4    2
    14     4     5    1
    15     5     6    2
    16     6     7    1
    17     7     8    1
    18     8     9    2
    19     9    10    1
    20     9    11    1
    21    11    12    2
    22    20    15    1
    23    12     3    1
    24    22    15    1
    25    12     6    1
