@<TRIPOS>MOLECULE
*****
 35 37 0 0 0
SMALL
GASTEIGER

@<TRIPOS>ATOM
      1 C          64.1236   91.0475   13.8788 C.3     1  UNL1        0.0920
      2 C          65.4143   91.7832   13.6709 C.3     1  UNL1        0.2582
      3 S          65.7945   92.2577   12.2997 S.O     1  UNL1        0.0319
      4 O          67.0851   92.9933   12.0917 O.co2   1  UNL1       -0.6812
      5 C          64.8842   91.9965   11.1364 C.3     1  UNL1        0.2736
      6 C          63.5937   91.2608   11.3444 C.3     1  UNL1        0.1416
      7 C          63.2134   90.7863   12.7156 C.3     1  UNL1        0.1353
      8 O          61.9228   90.0507   12.9235 O.3     1  UNL1       -0.3827
      9 H          61.4580   89.9672   12.0762 H       1  UNL1        0.2104
     10 N          62.6833   90.9996   10.1811 N.3     1  UNL1       -0.2887
     11 H          63.2193   90.4570    9.5038 H       1  UNL1        0.1237
     12 C          61.3882   90.2725   10.3908 C.3     1  UNL1        0.0958
     13 C          61.1318   88.9769    9.6798 C.ar    1  UNL1       -0.0067
     14 C          60.0157   88.8766    8.6827 C.ar    1  UNL1       -0.0029
     15 C          59.7594   87.5810    7.9717 C.ar    1  UNL1       -0.0006
     16 C          60.6191   86.3855    8.2578 C.ar    1  UNL1       -0.0043
     17 C          61.7352   86.4858    9.2549 C.ar    1  UNL1       -0.0231
     18 C          61.9916   87.7815    9.9659 C.ar    1  UNL1       -0.0072
     19 C          62.5949   85.2904    9.5411 C.3     1  UNL1        0.0189
     20 C          63.0744   85.2950    8.1198 C.3     1  UNL1        0.0044
     21 C          62.1155   85.2858   10.9623 C.3     1  UNL1        0.0044
     22 C          63.4547   84.0951    9.8272 C.3     1  UNL1        0.0044
     23 C          63.7434   90.5730   15.2501 C.3     1  UNL1        0.0342
     24 C          64.3926   86.6704   14.9373 C.ar    1  UNL1        0.1534
     25 C          64.4005   88.1379   14.6270 C.ar    1  UNL1        0.0341
     26 C          63.7355   89.1055   15.5605 C.ar    1  UNL1       -0.0166
     27 C          63.0627   88.6056   16.8044 C.ar    1  UNL1        0.0268
     28 C          63.0548   87.1382   17.1148 C.ar    1  UNL1        0.1556
     29 F          62.3820   86.6382   18.3588 F       1  UNL1       -0.2028
     30 C          63.7198   86.1705   16.1813 C.ar    1  UNL1        0.1037
     31 N          63.7119   84.7030   16.4917 N.pl3   1  UNL1       -0.3529
     32 H          63.2703   84.3749   17.3082 H       1  UNL1        0.1425
     33 H          64.1483   84.0679   15.8790 H       1  UNL1        0.1425
     34 C          64.3348   84.4621   13.5698 C.3     1  UNL1        0.2525
     35 O          65.0576   85.7027   14.0038 O.3     1  UNL1       -0.4701
@<TRIPOS>UNITY_ATOM_ATTR
3 1
charge 1
4 1
charge -1
@<TRIPOS>BOND
     1    34    35    1
     2    35    24    1
     3    24    25   ar
     4    25    26   ar
     5    26    23    1
     6     1    23    1
     7     1     2    1
     8     2     3    1
     9     3     4    2
    10     3     5    1
    11     5     6    1
    12     6    10    1
    13    10    12    1
    14    12    13    1
    15    13    14   ar
    16    14    15   ar
    17    15    16   ar
    18    16    17   ar
    19    17    19    1
    20    19    20    1
    21    19    21    1
    22    19    22    1
    23    17    18   ar
    24     6     7    1
    25     7     8    1
    26    26    27   ar
    27    27    28   ar
    28    28    29    1
    29    28    30   ar
    30    30    31    1
    31    30    24   ar
    32     7     1    1
    33    18    13   ar
    34    10    11    1
    35     8     9    1
    36    31    32    1
    37    31    33    1
@<TRIPOS>MOLECULE
*****
 35 37 0 0 0
SMALL
GASTEIGER

@<TRIPOS>ATOM
      1 C          61.9551   86.1602   10.0308 C.3     1  UNL1        0.0920
      2 C          60.8181   86.0042    9.0649 C.3     1  UNL1        0.2582
      3 S          59.8412   87.1255    8.8691 S.O     1  UNL1        0.0319
      4 O          58.7042   86.9696    7.9033 O.co2   1  UNL1       -0.6812
      5 C          60.0014   88.4028    9.6392 C.3     1  UNL1        0.2736
      6 C          61.1384   88.5588   10.6050 C.3     1  UNL1        0.1416
      7 C          62.1153   87.4374   10.8008 C.3     1  UNL1        0.1353
      8 O          63.2523   87.5934   11.7667 O.3     1  UNL1       -0.3827
      9 H          63.2099   88.4713   12.1770 H       1  UNL1        0.2104
     10 N          61.2986   89.8361   11.3751 N.3     1  UNL1       -0.2887
     11 H          61.7498   89.5935   12.2571 H       1  UNL1        0.1237
     12 C          62.0803   90.9733   10.7871 C.3     1  UNL1        0.0958
     13 C          63.3901   91.3772   11.3964 C.ar    1  UNL1       -0.0067
     14 C          63.7248   90.9622   12.7984 C.ar    1  UNL1       -0.0029
     15 C          65.0346   91.3661   13.4077 C.ar    1  UNL1       -0.0006
     16 C          66.0097   92.1851   12.6149 C.ar    1  UNL1       -0.0043
     17 C          65.6750   92.6001   11.2128 C.ar    1  UNL1       -0.0231
     18 C          64.3652   92.1961   10.6036 C.ar    1  UNL1       -0.0072
     19 C          66.6501   93.4190   10.4200 C.3     1  UNL1        0.0189
     20 C          67.5522   92.2268   10.2981 C.3     1  UNL1        0.0044
     21 C          65.7480   94.6111   10.5419 C.3     1  UNL1        0.0044
     22 C          67.6252   94.2379    9.6272 C.3     1  UNL1        0.0044
     23 C          62.9320   85.0388   10.2266 C.3     1  UNL1        0.0342
     24 C          62.4397   83.7221   13.9380 C.ar    1  UNL1        0.1534
     25 C          62.5930   84.6555   12.7739 C.ar    1  UNL1        0.0341
     26 C          62.7787   84.1054   11.3908 C.ar    1  UNL1       -0.0166
     27 C          62.8112   82.6218   11.1719 C.ar    1  UNL1        0.0268
     28 C          62.6580   81.6884   12.3360 C.ar    1  UNL1        0.1556
     29 F          62.6905   80.2048   12.1172 F       1  UNL1       -0.2028
     30 C          62.4722   82.2386   13.7191 C.ar    1  UNL1        0.1037
     31 N          62.3189   81.3051   14.8832 N.pl3   1  UNL1       -0.3529
     32 H          62.3403   80.3314   14.7396 H       1  UNL1        0.1425
     33 H          62.1970   81.6662   15.7910 H       1  UNL1        0.1425
     34 C          63.3132   85.1418   15.9309 C.3     1  UNL1        0.2525
     35 O          62.2539   84.2723   15.3210 O.3     1  UNL1       -0.4701
@<TRIPOS>UNITY_ATOM_ATTR
3 1
charge 1
4 1
charge -1
@<TRIPOS>BOND
     1    34    35    1
     2    35    24    1
     3    24    25   ar
     4    25    26   ar
     5    26    23    1
     6     1    23    1
     7     1     2    1
     8     2     3    1
     9     3     4    2
    10     3     5    1
    11     5     6    1
    12     6    10    1
    13    10    12    1
    14    12    13    1
    15    13    14   ar
    16    14    15   ar
    17    15    16   ar
    18    16    17   ar
    19    17    19    1
    20    19    20    1
    21    19    21    1
    22    19    22    1
    23    17    18   ar
    24     6     7    1
    25     7     8    1
    26    26    27   ar
    27    27    28   ar
    28    28    29    1
    29    28    30   ar
    30    30    31    1
    31    30    24   ar
    32     7     1    1
    33    18    13   ar
    34    10    11    1
    35     8     9    1
    36    31    32    1
    37    31    33    1
@<TRIPOS>MOLECULE
*****
 35 37 0 0 0
SMALL
GASTEIGER

@<TRIPOS>ATOM
      1 C          64.9983   91.4420   12.9175 C.3     1  UNL1        0.0920
      2 C          64.5297   90.7503   14.1634 C.3     1  UNL1        0.2582
      3 S          63.1896   90.0770   14.1886 S.O     1  UNL1        0.0319
      4 O          62.7210   89.3853   15.4343 O.co2   1  UNL1       -0.6812
      5 C          62.3179   90.0954   12.9679 C.3     1  UNL1        0.2736
      6 C          62.7865   90.7871   11.7221 C.3     1  UNL1        0.1416
      7 C          64.1267   91.4604   11.6969 C.3     1  UNL1        0.1353
      8 O          64.5952   92.1520   10.4511 O.3     1  UNL1       -0.3827
      9 H          63.9177   92.0706    9.7617 H       1  UNL1        0.2104
     10 N          61.9149   90.8055   10.5014 N.3     1  UNL1       -0.2887
     11 H          62.5010   90.5205    9.7168 H       1  UNL1        0.1237
     12 C          60.6791   89.9570   10.4494 C.3     1  UNL1        0.0958
     13 C          60.6747   88.6863    9.6523 C.ar    1  UNL1       -0.0067
     14 C          59.7029   88.5127    8.5230 C.ar    1  UNL1       -0.0029
     15 C          59.6986   87.2421    7.7259 C.ar    1  UNL1       -0.0006
     16 C          60.6660   86.1449    8.0582 C.ar    1  UNL1       -0.0043
     17 C          61.6378   86.3185    9.1875 C.ar    1  UNL1       -0.0231
     18 C          61.6421   87.5892    9.9846 C.ar    1  UNL1       -0.0072
     19 C          62.6053   85.2214    9.5198 C.3     1  UNL1        0.0189
     20 C          62.1908   85.2920   10.9597 C.3     1  UNL1        0.0044
     21 C          63.0198   85.1509    8.0800 C.3     1  UNL1        0.0044
     22 C          63.5727   84.1244    9.8521 C.3     1  UNL1        0.0044
     23 C          66.3385   92.1152   12.8924 C.3     1  UNL1        0.0342
     24 C          66.6265   95.1964   10.4076 C.ar    1  UNL1        0.1534
     25 C          66.2298   94.3592   11.5873 C.ar    1  UNL1        0.0341
     26 C          66.7352   92.9524   11.7126 C.ar    1  UNL1       -0.0166
     27 C          67.6371   92.3829   10.6581 C.ar    1  UNL1        0.0268
     28 C          68.0338   93.2200    9.4784 C.ar    1  UNL1        0.1556
     29 F          68.9358   92.6505    8.4238 F       1  UNL1       -0.2028
     30 C          67.5285   94.6268    9.3532 C.ar    1  UNL1        0.1037
     31 N          67.9252   95.4640    8.1734 N.pl3   1  UNL1       -0.3529
     32 H          68.5172   95.0901    7.4813 H       1  UNL1        0.1425
     33 H          67.5935   96.3873    8.0912 H       1  UNL1        0.1425
     34 C          64.6971   96.8559    9.8846 C.3     1  UNL1        0.2525
     35 O          66.1211   96.6031   10.2824 O.3     1  UNL1       -0.4701
@<TRIPOS>UNITY_ATOM_ATTR
3 1
charge 1
4 1
charge -1
@<TRIPOS>BOND
     1    34    35    1
     2    35    24    1
     3    24    25   ar
     4    25    26   ar
     5    26    23    1
     6     1    23    1
     7     1     2    1
     8     2     3    1
     9     3     4    2
    10     3     5    1
    11     5     6    1
    12     6    10    1
    13    10    12    1
    14    12    13    1
    15    13    14   ar
    16    14    15   ar
    17    15    16   ar
    18    16    17   ar
    19    17    19    1
    20    19    20    1
    21    19    21    1
    22    19    22    1
    23    17    18   ar
    24     6     7    1
    25     7     8    1
    26    26    27   ar
    27    27    28   ar
    28    28    29    1
    29    28    30   ar
    30    30    31    1
    31    30    24   ar
    32     7     1    1
    33    18    13   ar
    34    10    11    1
    35     8     9    1
    36    31    32    1
    37    31    33    1
@<TRIPOS>MOLECULE
*****
 35 37 0 0 0
SMALL
GASTEIGER

@<TRIPOS>ATOM
      1 C          61.9128   86.4006   10.1834 C.3     1  UNL1        0.0920
      2 C          60.7904   86.3441    9.1898 C.3     1  UNL1        0.2582
      3 S          59.8550   87.5082    9.0481 S.O     1  UNL1        0.0319
      4 O          58.7326   87.4518    8.0547 O.co2   1  UNL1       -0.6812
      5 C          60.0421   88.7287    9.8999 C.3     1  UNL1        0.2736
      6 C          61.1645   88.7851   10.8934 C.3     1  UNL1        0.1416
      7 C          62.0998   87.6210   11.0351 C.3     1  UNL1        0.1353
      8 O          63.2223   87.6775   12.0286 O.3     1  UNL1       -0.3827
      9 H          63.2008   88.5290   12.4927 H       1  UNL1        0.2104
     10 N          61.3516   90.0056   11.7451 N.3     1  UNL1       -0.2887
     11 H          60.4641   90.1725   12.2194 H       1  UNL1        0.1237
     12 C          62.4173   90.0274   12.8005 C.3     1  UNL1        0.0958
     13 C          63.6502   90.8588   12.6042 C.ar    1  UNL1       -0.0067
     14 C          63.9147   91.5065   11.2773 C.ar    1  UNL1       -0.0029
     15 C          65.1476   92.3379   11.0810 C.ar    1  UNL1       -0.0006
     16 C          66.1163   92.5216   12.2116 C.ar    1  UNL1       -0.0043
     17 C          65.8518   91.8739   13.5385 C.ar    1  UNL1       -0.0231
     18 C          64.6188   91.0424   13.7347 C.ar    1  UNL1       -0.0072
     19 C          66.8203   92.0575   14.6690 C.3     1  UNL1        0.0189
     20 C          67.9651   91.8551   13.7212 C.3     1  UNL1        0.0044
     21 C          65.6755   92.2599   15.6169 C.3     1  UNL1        0.0044
     22 C          67.7888   92.2412   15.7996 C.3     1  UNL1        0.0044
     23 C          62.8482   85.2365   10.3251 C.3     1  UNL1        0.0342
     24 C          62.3919   83.8996   14.0338 C.ar    1  UNL1        0.1534
     25 C          62.5345   84.8394   12.8734 C.ar    1  UNL1        0.0341
     26 C          62.7055   84.2967   11.4855 C.ar    1  UNL1       -0.0166
     27 C          62.7338   82.8144   11.2580 C.ar    1  UNL1        0.0268
     28 C          62.5912   81.8747   12.4184 C.ar    1  UNL1        0.1556
     29 F          62.6195   80.3922   12.1909 F       1  UNL1       -0.2028
     30 C          62.4202   82.4173   13.8063 C.ar    1  UNL1        0.1037
     31 N          62.2775   81.4775   14.9667 N.pl3   1  UNL1       -0.3529
     32 H          62.2961   80.5046   14.8174 H       1  UNL1        0.1425
     33 H          62.1653   81.8336   15.8777 H       1  UNL1        0.1425
     34 C          63.3215   85.2399   16.0560 C.3     1  UNL1        0.2525
     35 O          62.2209   84.4423   15.4217 O.3     1  UNL1       -0.4701
@<TRIPOS>UNITY_ATOM_ATTR
3 1
charge 1
4 1
charge -1
@<TRIPOS>BOND
     1    34    35    1
     2    35    24    1
     3    24    25   ar
     4    25    26   ar
     5    26    23    1
     6     1    23    1
     7     1     2    1
     8     2     3    1
     9     3     4    2
    10     3     5    1
    11     5     6    1
    12     6    10    1
    13    10    12    1
    14    12    13    1
    15    13    14   ar
    16    14    15   ar
    17    15    16   ar
    18    16    17   ar
    19    17    19    1
    20    19    20    1
    21    19    21    1
    22    19    22    1
    23    17    18   ar
    24     6     7    1
    25     7     8    1
    26    26    27   ar
    27    27    28   ar
    28    28    29    1
    29    28    30   ar
    30    30    31    1
    31    30    24   ar
    32     7     1    1
    33    18    13   ar
    34    10    11    1
    35     8     9    1
    36    31    32    1
    37    31    33    1
@<TRIPOS>MOLECULE
*****
 35 37 0 0 0
SMALL
GASTEIGER

@<TRIPOS>ATOM
      1 C          63.4583   89.0816   15.6259 C.3     1  UNL1        0.0920
      2 C          63.0950   88.6395   17.0125 C.3     1  UNL1        0.2582
      3 S          63.1064   87.1808   17.3617 S.O     1  UNL1        0.0319
      4 O          62.7432   86.7386   18.7483 O.co2   1  UNL1       -0.6812
      5 C          63.4810   86.1641   16.3243 C.3     1  UNL1        0.2736
      6 C          63.8442   86.6062   14.9377 C.3     1  UNL1        0.1416
      7 C          63.8328   88.0650   14.5885 C.3     1  UNL1        0.1353
      8 O          64.1961   88.5071   13.2019 O.3     1  UNL1       -0.3827
      9 H          64.4102   87.7310   12.6608 H       1  UNL1        0.2104
     10 N          64.2188   85.5896   13.9003 N.3     1  UNL1       -0.2887
     11 H          64.7887   84.8860   14.3698 H       1  UNL1        0.1237
     12 C          63.1482   84.8513   13.1529 C.3     1  UNL1        0.0958
     13 C          62.9320   85.1190   11.6929 C.ar    1  UNL1       -0.0067
     14 C          63.4844   84.1740   10.6673 C.ar    1  UNL1       -0.0029
     15 C          63.2683   84.4417    9.2073 C.ar    1  UNL1       -0.0006
     16 C          62.4997   85.6544    8.7729 C.ar    1  UNL1       -0.0043
     17 C          61.9473   86.5994    9.7985 C.ar    1  UNL1       -0.0231
     18 C          62.1635   86.3316   11.2585 C.ar    1  UNL1       -0.0072
     19 C          61.1788   87.8120    9.3641 C.3     1  UNL1        0.0189
     20 C          60.2171   86.9353    8.6181 C.3     1  UNL1        0.0044
     21 C          62.1404   88.6887   10.1101 C.3     1  UNL1        0.0044
     22 C          60.4102   89.0247    8.9297 C.3     1  UNL1        0.0044
     23 C          63.4469   90.5404   15.2767 C.3     1  UNL1        0.0342
     24 C          66.8480   91.8451   13.7019 C.ar    1  UNL1        0.1534
     25 C          65.8608   91.3035   14.6928 C.ar    1  UNL1        0.0341
     26 C          64.4342   91.0820   14.2857 C.ar    1  UNL1       -0.0166
     27 C          63.9948   91.4022   12.8877 C.ar    1  UNL1        0.0268
     28 C          64.9820   91.9438   11.8968 C.ar    1  UNL1        0.1556
     29 F          64.5427   92.2640   10.4988 F       1  UNL1       -0.2028
     30 C          66.4087   92.1653   12.3039 C.ar    1  UNL1        0.1037
     31 N          67.3959   92.7070   11.3129 N.pl3   1  UNL1       -0.3529
     32 H          67.1075   92.9171   10.3953 H       1  UNL1        0.1425
     33 H          68.3323   92.8523   11.5801 H       1  UNL1        0.1425
     34 C          68.5869   92.8104   15.3735 C.3     1  UNL1        0.2525
     35 O          68.2747   92.0666   14.1090 O.3     1  UNL1       -0.4701
@<TRIPOS>UNITY_ATOM_ATTR
3 1
charge 1
4 1
charge -1
@<TRIPOS>BOND
     1    34    35    1
     2    35    24    1
     3    24    25   ar
     4    25    26   ar
     5    26    23    1
     6     1    23    1
     7     1     2    1
     8     2     3    1
     9     3     4    2
    10     3     5    1
    11     5     6    1
    12     6    10    1
    13    10    12    1
    14    12    13    1
    15    13    14   ar
    16    14    15   ar
    17    15    16   ar
    18    16    17   ar
    19    17    19    1
    20    19    20    1
    21    19    21    1
    22    19    22    1
    23    17    18   ar
    24     6     7    1
    25     7     8    1
    26    26    27   ar
    27    27    28   ar
    28    28    29    1
    29    28    30   ar
    30    30    31    1
    31    30    24   ar
    32     7     1    1
    33    18    13   ar
    34    10    11    1
    35     8     9    1
    36    31    32    1
    37    31    33    1
@<TRIPOS>MOLECULE
*****
 35 37 0 0 0
SMALL
GASTEIGER

@<TRIPOS>ATOM
      1 C          62.2530   90.8198   10.9217 C.3     1  UNL1        0.0920
      2 C          63.3541   91.5711   10.2336 C.3     1  UNL1        0.2582
      3 S          64.5845   91.9638   10.9963 S.O     1  UNL1        0.0319
      4 O          65.6855   92.7150   10.3083 O.co2   1  UNL1       -0.6812
      5 C          64.7139   91.6052   12.4472 C.3     1  UNL1        0.2736
      6 C          63.6128   90.8541   13.1351 C.3     1  UNL1        0.1416
      7 C          62.3824   90.4614   12.3724 C.3     1  UNL1        0.1353
      8 O          61.2813   89.7101   13.0605 O.3     1  UNL1       -0.3827
      9 H          61.5226   89.5602   13.9879 H       1  UNL1        0.2104
     10 N          63.7422   90.4955   14.5860 N.3     1  UNL1       -0.2887
     11 H          62.8032   90.2797   14.9208 H       1  UNL1        0.1237
     12 C          64.6228   89.3543   15.0008 C.3     1  UNL1        0.0958
     13 C          64.0170   88.1161   15.5922 C.ar    1  UNL1       -0.0067
     14 C          63.2217   88.2026   16.8611 C.ar    1  UNL1       -0.0029
     15 C          62.6160   86.9644   17.4524 C.ar    1  UNL1       -0.0006
     16 C          62.8055   85.6395   16.7749 C.ar    1  UNL1       -0.0043
     17 C          63.6008   85.5530   15.5061 C.ar    1  UNL1       -0.0231
     18 C          64.2066   86.7913   14.9147 C.ar    1  UNL1       -0.0072
     19 C          63.7903   84.2282   14.8286 C.3     1  UNL1        0.0189
     20 C          65.1355   84.6727   14.3358 C.3     1  UNL1        0.0044
     21 C          62.4451   83.7838   15.3214 C.3     1  UNL1        0.0044
     22 C          63.9798   82.9035   14.1511 C.3     1  UNL1        0.0044
     23 C          61.0225   90.4271   10.1589 C.3     1  UNL1        0.0342
     24 C          61.8513   86.6657    9.2025 C.ar    1  UNL1        0.1534
     25 C          61.9249   88.0083    9.8672 C.ar    1  UNL1        0.0341
     26 C          60.9489   89.0845    9.4941 C.ar    1  UNL1       -0.0166
     27 C          59.8992   88.8180    8.4563 C.ar    1  UNL1        0.0268
     28 C          59.8255   87.4754    7.7916 C.ar    1  UNL1        0.1556
     29 F          58.7758   87.2088    6.7537 F       1  UNL1       -0.2028
     30 C          60.8016   86.3992    8.1647 C.ar    1  UNL1        0.1037
     31 N          60.7279   85.0565    7.4999 N.pl3   1  UNL1       -0.3529
     32 H          60.0389   84.8817    6.8187 H       1  UNL1        0.1425
     33 H          61.3685   84.3502    7.7447 H       1  UNL1        0.1425
     34 C          62.6771   84.8590   10.8770 C.3     1  UNL1        0.2525
     35 O          62.8273   85.5895    9.5756 O.3     1  UNL1       -0.4701
@<TRIPOS>UNITY_ATOM_ATTR
3 1
charge 1
4 1
charge -1
@<TRIPOS>BOND
     1    34    35    1
     2    35    24    1
     3    24    25   ar
     4    25    26   ar
     5    26    23    1
     6     1    23    1
     7     1     2    1
     8     2     3    1
     9     3     4    2
    10     3     5    1
    11     5     6    1
    12     6    10    1
    13    10    12    1
    14    12    13    1
    15    13    14   ar
    16    14    15   ar
    17    15    16   ar
    18    16    17   ar
    19    17    19    1
    20    19    20    1
    21    19    21    1
    22    19    22    1
    23    17    18   ar
    24     6     7    1
    25     7     8    1
    26    26    27   ar
    27    27    28   ar
    28    28    29    1
    29    28    30   ar
    30    30    31    1
    31    30    24   ar
    32     7     1    1
    33    18    13   ar
    34    10    11    1
    35     8     9    1
    36    31    32    1
    37    31    33    1
@<TRIPOS>MOLECULE
*****
 35 37 0 0 0
SMALL
GASTEIGER

@<TRIPOS>ATOM
      1 C          63.7577   83.2366   14.2928 C.3     1  UNL1        0.0920
      2 C          62.5620   82.4803   14.7912 C.3     1  UNL1        0.2582
      3 S          61.7427   81.6605   13.8390 S.O     1  UNL1        0.0319
      4 O          60.5471   80.9042   14.3373 O.co2   1  UNL1       -0.6812
      5 C          62.1192   81.5971   12.3883 C.3     1  UNL1        0.2736
      6 C          63.3148   82.3534   11.8900 C.3     1  UNL1        0.1416
      7 C          64.1341   83.1732   12.8422 C.3     1  UNL1        0.1353
      8 O          65.3298   83.9295   12.3438 O.3     1  UNL1       -0.3827
      9 H          65.4316   83.7816   11.3906 H       1  UNL1        0.2104
     10 N          63.6912   82.2900   10.4393 N.3     1  UNL1       -0.2887
     11 H          62.8806   81.9234    9.9405 H       1  UNL1        0.1237
     12 C          64.1156   83.5357    9.7195 C.3     1  UNL1        0.0958
     13 C          63.0827   84.4515    9.1325 C.ar    1  UNL1       -0.0067
     14 C          62.7459   84.3649    7.6734 C.ar    1  UNL1       -0.0029
     15 C          61.7130   85.2806    7.0865 C.ar    1  UNL1       -0.0006
     16 C          61.0169   86.2831    7.9587 C.ar    1  UNL1       -0.0043
     17 C          61.3538   86.3697    9.4178 C.ar    1  UNL1       -0.0231
     18 C          62.3867   85.4539   10.0047 C.ar    1  UNL1       -0.0072
     19 C          60.6577   87.3721   10.2900 C.3     1  UNL1        0.0189
     20 C          61.1813   86.6740   11.5100 C.3     1  UNL1        0.0044
     21 C          60.1342   88.0701    9.0699 C.3     1  UNL1        0.0044
     22 C          59.9617   88.3745   11.1622 C.3     1  UNL1        0.0044
     23 C          64.5770   84.0563   15.2451 C.3     1  UNL1        0.0342
     24 C          64.0830   87.9784   14.8941 C.ar    1  UNL1        0.1534
     25 C          64.4839   86.5669   14.5830 C.ar    1  UNL1        0.0341
     26 C          64.1761   85.4679   15.5563 C.ar    1  UNL1       -0.0166
     27 C          63.4674   85.7804   16.8408 C.ar    1  UNL1        0.0268
     28 C          63.0665   87.1919   17.1520 C.ar    1  UNL1        0.1556
     29 F          62.3577   87.5045   18.4365 F       1  UNL1       -0.2028
     30 C          63.3743   88.2909   16.1786 C.ar    1  UNL1        0.1037
     31 N          62.9734   89.7025   16.4898 N.pl3   1  UNL1       -0.3529
     32 H          62.5082   89.9076   17.3329 H       1  UNL1        0.1425
     33 H          63.1754   90.4238   15.8510 H       1  UNL1        0.1425
     34 C          63.4207   89.4011   12.8236 C.3     1  UNL1        0.2525
     35 O          64.3909   89.0774   13.9208 O.3     1  UNL1       -0.4701
@<TRIPOS>UNITY_ATOM_ATTR
3 1
charge 1
4 1
charge -1
@<TRIPOS>BOND
     1    34    35    1
     2    35    24    1
     3    24    25   ar
     4    25    26   ar
     5    26    23    1
     6     1    23    1
     7     1     2    1
     8     2     3    1
     9     3     4    2
    10     3     5    1
    11     5     6    1
    12     6    10    1
    13    10    12    1
    14    12    13    1
    15    13    14   ar
    16    14    15   ar
    17    15    16   ar
    18    16    17   ar
    19    17    19    1
    20    19    20    1
    21    19    21    1
    22    19    22    1
    23    17    18   ar
    24     6     7    1
    25     7     8    1
    26    26    27   ar
    27    27    28   ar
    28    28    29    1
    29    28    30   ar
    30    30    31    1
    31    30    24   ar
    32     7     1    1
    33    18    13   ar
    34    10    11    1
    35     8     9    1
    36    31    32    1
    37    31    33    1
@<TRIPOS>MOLECULE
*****
 35 37 0 0 0
SMALL
GASTEIGER

@<TRIPOS>ATOM
      1 C          63.3864   88.9207   15.7660 C.3     1  UNL1        0.0920
      2 C          62.9867   88.4867   17.1451 C.3     1  UNL1        0.2582
      3 S          63.0360   87.0346   17.5182 S.O     1  UNL1        0.0319
      4 O          62.6364   86.6006   18.8972 O.co2   1  UNL1       -0.6812
      5 C          63.4850   86.0166   16.5121 C.3     1  UNL1        0.2736
      6 C          63.8847   86.4507   15.1330 C.3     1  UNL1        0.1416
      7 C          63.8354   87.9027   14.7600 C.3     1  UNL1        0.1353
      8 O          64.2351   88.3368   13.3809 O.3     1  UNL1       -0.3827
      9 H          64.4967   87.5608   12.8608 H       1  UNL1        0.2104
     10 N          64.3337   85.4327   14.1269 N.3     1  UNL1       -0.2887
     11 H          64.9489   84.7844   14.6185 H       1  UNL1        0.1237
     12 C          63.3204   84.6003   13.3988 C.3     1  UNL1        0.0958
     13 C          63.1389   84.7643   11.9189 C.ar    1  UNL1       -0.0067
     14 C          63.7681   83.7848   10.9730 C.ar    1  UNL1       -0.0029
     15 C          63.5866   83.9488    9.4931 C.ar    1  UNL1       -0.0006
     16 C          62.7759   85.0923    8.9590 C.ar    1  UNL1       -0.0043
     17 C          62.1467   86.0718    9.9049 C.ar    1  UNL1       -0.0231
     18 C          62.3282   85.9077   11.3849 C.ar    1  UNL1       -0.0072
     19 C          61.3359   87.2153    9.3709 C.3     1  UNL1        0.0189
     20 C          60.6542   86.2844    8.4126 C.3     1  UNL1        0.0044
     21 C          62.0177   88.1462   10.3293 C.3     1  UNL1        0.0044
     22 C          60.5252   88.3587    8.8370 C.3     1  UNL1        0.0044
     23 C          63.3371   90.3727   15.3930 C.3     1  UNL1        0.0342
     24 C          64.9927   91.8873   12.1195 C.ar    1  UNL1        0.1534
     25 C          63.9693   91.3187   13.0572 C.ar    1  UNL1        0.0341
     26 C          64.3606   90.9413   14.4552 C.ar    1  UNL1       -0.0166
     27 C          65.7754   91.1325   14.9155 C.ar    1  UNL1        0.0268
     28 C          66.7987   91.7011   13.9778 C.ar    1  UNL1        0.1556
     29 F          68.2136   91.8924   14.4381 F       1  UNL1       -0.2028
     30 C          66.4074   92.0785   12.5798 C.ar    1  UNL1        0.1037
     31 N          67.4309   92.6471   11.6421 N.pl3   1  UNL1       -0.3529
     32 H          68.3594   92.7726   11.9442 H       1  UNL1        0.1425
     33 H          67.1740   92.8948   10.7245 H       1  UNL1        0.1425
     34 C          63.4315   91.5950   10.0635 C.3     1  UNL1        0.2525
     35 O          64.6013   92.2647   10.7215 O.3     1  UNL1       -0.4701
@<TRIPOS>UNITY_ATOM_ATTR
3 1
charge 1
4 1
charge -1
@<TRIPOS>BOND
     1    34    35    1
     2    35    24    1
     3    24    25   ar
     4    25    26   ar
     5    26    23    1
     6     1    23    1
     7     1     2    1
     8     2     3    1
     9     3     4    2
    10     3     5    1
    11     5     6    1
    12     6    10    1
    13    10    12    1
    14    12    13    1
    15    13    14   ar
    16    14    15   ar
    17    15    16   ar
    18    16    17   ar
    19    17    19    1
    20    19    20    1
    21    19    21    1
    22    19    22    1
    23    17    18   ar
    24     6     7    1
    25     7     8    1
    26    26    27   ar
    27    27    28   ar
    28    28    29    1
    29    28    30   ar
    30    30    31    1
    31    30    24   ar
    32     7     1    1
    33    18    13   ar
    34    10    11    1
    35     8     9    1
    36    31    32    1
    37    31    33    1
@<TRIPOS>MOLECULE
*****
 35 37 0 0 0
SMALL
GASTEIGER

@<TRIPOS>ATOM
      1 C          63.0648   84.1598   11.0695 C.3     1  UNL1        0.0920
      2 C          62.9637   82.6632   11.0725 C.3     1  UNL1        0.2582
      3 S          62.7904   81.9258   12.3672 S.O     1  UNL1        0.0319
      4 O          62.6893   80.4292   12.3703 O.co2   1  UNL1       -0.6812
      5 C          62.7183   82.6850   13.6589 C.3     1  UNL1        0.2736
      6 C          62.8195   84.1816   13.6559 C.3     1  UNL1        0.1416
      7 C          62.9927   84.9190   12.3612 C.3     1  UNL1        0.1353
      8 O          63.0938   86.4156   12.3582 O.3     1  UNL1       -0.3827
      9 H          63.0293   86.7459   13.2680 H       1  UNL1        0.2104
     10 N          62.7473   84.9408   14.9476 N.3     1  UNL1       -0.2887
     11 H          62.5469   84.2589   15.6792 H       1  UNL1        0.1237
     12 C          63.9269   85.7418   15.4136 C.3     1  UNL1        0.0958
     13 C          63.7880   87.2177   15.6424 C.ar    1  UNL1       -0.0067
     14 C          63.1632   87.7249   16.9082 C.ar    1  UNL1       -0.0029
     15 C          63.0243   89.2008   17.1371 C.ar    1  UNL1       -0.0006
     16 C          63.5104   90.1696   16.1001 C.ar    1  UNL1       -0.0043
     17 C          64.1353   89.6623   14.8343 C.ar    1  UNL1       -0.0231
     18 C          64.2741   88.1864   14.6055 C.ar    1  UNL1       -0.0072
     19 C          64.6213   90.6310   13.7973 C.3     1  UNL1        0.0189
     20 C          65.5552   91.2379   14.8020 C.3     1  UNL1        0.0044
     21 C          63.6874   90.0241   12.7926 C.3     1  UNL1        0.0044
     22 C          65.1074   91.5997   12.7603 C.3     1  UNL1        0.0044
     23 C          63.2381   84.8972    9.7748 C.3     1  UNL1        0.0342
     24 C          61.3191   88.3475    9.3709 C.ar    1  UNL1        0.1534
     25 C          62.3391   87.3347    9.7995 C.ar    1  UNL1        0.0341
     26 C          62.2179   85.9100    9.3462 C.ar    1  UNL1       -0.0166
     27 C          61.0766   85.4980    8.4644 C.ar    1  UNL1        0.0268
     28 C          60.0566   86.5108    8.0358 C.ar    1  UNL1        0.1556
     29 F          58.9152   86.0988    7.1539 F       1  UNL1       -0.2028
     30 C          60.1778   87.9355    8.4891 C.ar    1  UNL1        0.1037
     31 N          59.1576   88.9483    8.0605 N.pl3   1  UNL1       -0.3529
     32 H          58.4085   88.6779    7.4817 H       1  UNL1        0.1425
     33 H          59.2372   89.8834    8.3580 H       1  UNL1        0.1425
     34 C          60.5412   90.2944   10.9053 C.3     1  UNL1        0.2525
     35 O          61.4403   89.7722    9.8242 O.3     1  UNL1       -0.4701
@<TRIPOS>UNITY_ATOM_ATTR
3 1
charge 1
4 1
charge -1
@<TRIPOS>BOND
     1    34    35    1
     2    35    24    1
     3    24    25   ar
     4    25    26   ar
     5    26    23    1
     6     1    23    1
     7     1     2    1
     8     2     3    1
     9     3     4    2
    10     3     5    1
    11     5     6    1
    12     6    10    1
    13    10    12    1
    14    12    13    1
    15    13    14   ar
    16    14    15   ar
    17    15    16   ar
    18    16    17   ar
    19    17    19    1
    20    19    20    1
    21    19    21    1
    22    19    22    1
    23    17    18   ar
    24     6     7    1
    25     7     8    1
    26    26    27   ar
    27    27    28   ar
    28    28    29    1
    29    28    30   ar
    30    30    31    1
    31    30    24   ar
    32     7     1    1
    33    18    13   ar
    34    10    11    1
    35     8     9    1
    36    31    32    1
    37    31    33    1
