@<TRIPOS>MOLECULE
*****
 29 32 0 0 0
SMALL
GASTEIGER

@<TRIPOS>ATOM
      1 C          64.1730   85.2684   15.4526 C.ar    1  UNL1        0.1311
      2 C          64.6718   86.2078   14.3949 C.ar    1  UNL1        0.0339
      3 C          64.4458   87.6839   14.5359 C.ar    1  UNL1        0.0027
      4 C          63.7209   88.2206   15.7344 C.ar    1  UNL1        0.0283
      5 C          63.2221   87.2812   16.7921 C.ar    1  UNL1        0.2196
      6 F          62.4973   87.8179   17.9906 F       1  UNL1       -0.1835
      7 N          63.4482   85.8051   16.6511 N.ar    1  UNL1       -0.2035
      8 N          64.3991   83.7922   15.3117 N.pl3   1  UNL1       -0.3132
      9 H          65.0843   83.3448   15.8589 H       1  UNL1        0.1485
     10 C          63.5810   82.9978   14.3371 C.3     1  UNL1        0.1348
     11 C          63.1967   84.7520    8.6123 C.3     1  UNL1        0.0327
     12 C          63.2928   84.3134   10.0434 C.ar    1  UNL1       -0.0027
     13 C          64.2951   83.2714   10.4429 C.ar    1  UNL1       -0.0015
     14 C          64.3911   82.8328   11.8741 C.ar    1  UNL1        0.0161
     15 C          63.4849   83.4364   12.9059 C.ar    1  UNL1        0.0788
     16 N          62.4827   84.4784   12.5064 N.ar    1  UNL1       -0.2468
     17 C          62.3866   84.9169   11.0752 C.ar    1  UNL1        0.0942
     18 C          63.4949   89.6969   15.8753 C.3     1  UNL1        0.0582
     19 C          64.1897   90.6535   14.9522 C.ar    1  UNL1        0.0044
     20 C          65.2679   91.6231   15.3359 C.ar    1  UNL1        0.0966
     21 N          65.6728   92.3773   14.1041 N.ar    1  UNL1       -0.2273
     22 C          64.8448   91.8738   12.9592 C.ar    1  UNL1        0.1402
     23 N          64.8071   92.2478   11.5071 N.ar    1  UNL1       -0.3377
     24 C          63.8528   91.5564   10.5791 C.ar    1  UNL1        0.0691
     25 C          62.9361   90.4911   11.1033 C.ar    1  UNL1       -0.0047
     26 C          61.9817   89.7997   10.1752 C.3     1  UNL1        0.0326
     27 C          62.9738   90.1171   12.5554 C.ar    1  UNL1       -0.0001
     28 C          63.9282   90.8084   13.4833 C.ar    1  UNL1        0.0315
     29 H          65.4088   92.9470   11.1631 H       1  UNL1        0.1674
@<TRIPOS>BOND
     1    11    12    1
     2    12    13   ar
     3    13    14   ar
     4    14    15   ar
     5    15    10    1
     6    10     8    1
     7     8     1    1
     8     1     2   ar
     9     2     3   ar
    10     3     4   ar
    11     4    18    1
    12    18    19    1
    13    19    20   ar
    14    20    21   ar
    15    21    22   ar
    16    22    23   ar
    17    23    24   ar
    18    24    25   ar
    19    25    26    1
    20    25    27   ar
    21    27    28   ar
    22     4     5   ar
    23     5     6    1
    24     5     7   ar
    25    15    16   ar
    26    16    17   ar
    27    17    12   ar
    28     7     1   ar
    29    28    19   ar
    30    28    22    1
    31     8     9    1
    32    23    29    1
@<TRIPOS>MOLECULE
*****
 29 32 0 0 0
SMALL
GASTEIGER

@<TRIPOS>ATOM
      1 C          62.1015   89.8115   12.1426 C.ar    1  UNL1        0.1311
      2 C          62.6349   90.7334   11.0865 C.ar    1  UNL1        0.0339
      3 C          63.8984   91.5036   11.3320 C.ar    1  UNL1        0.0027
      4 C          64.6285   91.3519   12.6335 C.ar    1  UNL1        0.0283
      5 C          64.0950   90.4299   13.6896 C.ar    1  UNL1        0.2196
      6 F          64.8251   90.2782   14.9911 F       1  UNL1       -0.1835
      7 N          62.8315   89.6597   13.4441 N.ar    1  UNL1       -0.2035
      8 N          60.8380   89.0412   11.8972 N.pl3   1  UNL1       -0.3132
      9 H          60.0905   89.1057   12.5347 H       1  UNL1        0.1485
     10 C          60.7132   88.1727   10.6805 C.3     1  UNL1        0.1348
     11 C          64.0386   83.2030   10.1881 C.3     1  UNL1        0.0327
     12 C          63.2072   84.4454   10.3112 C.ar    1  UNL1       -0.0027
     13 C          62.8833   85.2551    9.0907 C.ar    1  UNL1       -0.0015
     14 C          62.0520   86.4975    9.2139 C.ar    1  UNL1        0.0161
     15 C          61.5445   86.9303   10.5575 C.ar    1  UNL1        0.0788
     16 N          61.8685   86.1206   11.7779 N.ar    1  UNL1       -0.2468
     17 C          62.6998   84.8782   11.6548 C.ar    1  UNL1        0.0942
     18 C          65.8921   92.1222   12.8789 C.3     1  UNL1        0.0582
     19 C          66.7857   92.4831   11.7295 C.ar    1  UNL1        0.0044
     20 C          68.0199   91.7431   11.3061 C.ar    1  UNL1        0.0966
     21 N          68.5989   92.4500   10.1166 N.ar    1  UNL1       -0.2273
     22 C          67.7227   93.6268    9.8048 C.ar    1  UNL1        0.1402
     23 N          67.8004   94.6824    8.7420 N.ar    1  UNL1       -0.3377
     24 C          66.7575   95.7585    8.6760 C.ar    1  UNL1        0.0691
     25 C          65.6368   95.7789    9.6728 C.ar    1  UNL1       -0.0047
     26 C          64.5938   96.8550    9.6068 C.3     1  UNL1        0.0326
     27 C          65.5590   94.7233   10.7357 C.ar    1  UNL1       -0.0001
     28 C          66.6020   93.6473   10.8016 C.ar    1  UNL1        0.0315
     29 H          68.5359   94.6690    8.0877 H       1  UNL1        0.1674
@<TRIPOS>BOND
     1    11    12    1
     2    12    13   ar
     3    13    14   ar
     4    14    15   ar
     5    15    10    1
     6    10     8    1
     7     8     1    1
     8     1     2   ar
     9     2     3   ar
    10     3     4   ar
    11     4    18    1
    12    18    19    1
    13    19    20   ar
    14    20    21   ar
    15    21    22   ar
    16    22    23   ar
    17    23    24   ar
    18    24    25   ar
    19    25    26    1
    20    25    27   ar
    21    27    28   ar
    22     4     5   ar
    23     5     6    1
    24     5     7   ar
    25    15    16   ar
    26    16    17   ar
    27    17    12   ar
    28     7     1   ar
    29    28    19   ar
    30    28    22    1
    31     8     9    1
    32    23    29    1
@<TRIPOS>MOLECULE
*****
 29 32 0 0 0
SMALL
GASTEIGER

@<TRIPOS>ATOM
      1 C          63.2978   83.7036   13.1244 C.ar    1  UNL1        0.1311
      2 C          62.2795   84.7865   12.9234 C.ar    1  UNL1        0.0339
      3 C          62.0265   85.3323   11.5493 C.ar    1  UNL1        0.0027
      4 C          62.7917   84.7952   10.3763 C.ar    1  UNL1        0.0283
      5 C          63.8100   83.7123   10.5773 C.ar    1  UNL1        0.2196
      6 F          64.5752   83.1753    9.4043 F       1  UNL1       -0.1835
      7 N          64.0631   83.1666   11.9513 N.ar    1  UNL1       -0.2035
      8 N          63.5510   83.1578   14.4984 N.pl3   1  UNL1       -0.3132
      9 H          63.1808   82.2828   14.7563 H       1  UNL1        0.1485
     10 C          64.3681   83.9451   15.4795 C.3     1  UNL1        0.1348
     11 C          63.1377   89.7381   16.4421 C.3     1  UNL1        0.0327
     12 C          63.4453   88.2899   16.2014 C.ar    1  UNL1       -0.0027
     13 C          64.3077   87.8890   15.0415 C.ar    1  UNL1       -0.0015
     14 C          64.6153   86.4407   14.8009 C.ar    1  UNL1        0.0161
     15 C          64.0604   85.3934   15.7202 C.ar    1  UNL1        0.0788
     16 N          63.1980   85.7943   16.8801 N.ar    1  UNL1       -0.2468
     17 C          62.8904   87.2425   17.1207 C.ar    1  UNL1        0.0942
     18 C          62.5386   85.3411    9.0022 C.3     1  UNL1        0.0582
     19 C          61.5361   86.4392    8.8043 C.ar    1  UNL1        0.0044
     20 C          60.3322   86.3836    7.9114 C.ar    1  UNL1        0.0966
     21 N          59.6137   87.6959    8.0199 N.ar    1  UNL1       -0.2273
     22 C          60.3736   88.5625    8.9799 C.ar    1  UNL1        0.1402
     23 N          60.1371   89.9584    9.4752 N.ar    1  UNL1       -0.3377
     24 C          61.0888   90.5777   10.4553 C.ar    1  UNL1        0.0691
     25 C          62.2770   89.8010   10.9401 C.ar    1  UNL1       -0.0047
     26 C          63.2288   90.4204   11.9203 C.3     1  UNL1        0.0326
     27 C          62.5135   88.4051   10.4448 C.ar    1  UNL1       -0.0001
     28 C          61.5618   87.7858    9.4647 C.ar    1  UNL1        0.0315
     29 H          59.3573   90.4682    9.1570 H       1  UNL1        0.1674
@<TRIPOS>BOND
     1    11    12    1
     2    12    13   ar
     3    13    14   ar
     4    14    15   ar
     5    15    10    1
     6    10     8    1
     7     8     1    1
     8     1     2   ar
     9     2     3   ar
    10     3     4   ar
    11     4    18    1
    12    18    19    1
    13    19    20   ar
    14    20    21   ar
    15    21    22   ar
    16    22    23   ar
    17    23    24   ar
    18    24    25   ar
    19    25    26    1
    20    25    27   ar
    21    27    28   ar
    22     4     5   ar
    23     5     6    1
    24     5     7   ar
    25    15    16   ar
    26    16    17   ar
    27    17    12   ar
    28     7     1   ar
    29    28    19   ar
    30    28    22    1
    31     8     9    1
    32    23    29    1
@<TRIPOS>MOLECULE
*****
 29 32 0 0 0
SMALL
GASTEIGER

@<TRIPOS>ATOM
      1 C          61.8222   89.1750   11.3418 C.ar    1  UNL1        0.1311
      2 C          62.1481   89.8421   10.0385 C.ar    1  UNL1        0.0339
      3 C          63.1045   90.9972   10.0058 C.ar    1  UNL1        0.0027
      4 C          63.7349   91.4852   11.2765 C.ar    1  UNL1        0.0283
      5 C          63.4089   90.8180   12.5798 C.ar    1  UNL1        0.2196
      6 F          64.0393   91.3060   13.8504 F       1  UNL1       -0.1835
      7 N          62.4526   89.6630   12.6124 N.ar    1  UNL1       -0.2035
      8 N          60.8658   88.0199   11.3745 N.pl3   1  UNL1       -0.3132
      9 H          59.9075   88.1787   11.5346 H       1  UNL1        0.1485
     10 C          61.3695   86.6228   11.1634 C.3     1  UNL1        0.1348
     11 C          61.9193   84.4405    5.6015 C.3     1  UNL1        0.0327
     12 C          61.7819   84.9861    6.9920 C.ar    1  UNL1       -0.0027
     13 C          62.9245   84.8754    7.9574 C.ar    1  UNL1       -0.0015
     14 C          62.7870   85.4210    9.3479 C.ar    1  UNL1        0.0161
     15 C          61.5069   86.0773    9.7729 C.ar    1  UNL1        0.0788
     16 N          60.3643   86.1879    8.8074 N.ar    1  UNL1       -0.2468
     17 C          60.5018   85.6423    7.4170 C.ar    1  UNL1        0.0942
     18 C          64.6913   92.6403   11.2437 C.3     1  UNL1        0.0582
     19 C          66.1691   92.3927   11.3138 C.ar    1  UNL1        0.0044
     20 C          67.0816   92.1671   10.1449 C.ar    1  UNL1        0.0966
     21 N          68.4702   91.9622   10.6737 N.ar    1  UNL1       -0.2273
     22 C          68.4160   92.0612   12.1695 C.ar    1  UNL1        0.1402
     23 N          69.4778   91.9434   13.2223 N.ar    1  UNL1       -0.3377
     24 C          69.1174   92.0917   14.6708 C.ar    1  UNL1        0.0691
     25 C          67.6952   92.3578   15.0664 C.ar    1  UNL1       -0.0047
     26 C          67.3348   92.5061   16.5149 C.3     1  UNL1        0.0326
     27 C          66.6334   92.4756   14.0135 C.ar    1  UNL1       -0.0001
     28 C          66.9937   92.3273   12.5651 C.ar    1  UNL1        0.0315
     29 H          70.4112   91.7688   12.9627 H       1  UNL1        0.1674
@<TRIPOS>BOND
     1    11    12    1
     2    12    13   ar
     3    13    14   ar
     4    14    15   ar
     5    15    10    1
     6    10     8    1
     7     8     1    1
     8     1     2   ar
     9     2     3   ar
    10     3     4   ar
    11     4    18    1
    12    18    19    1
    13    19    20   ar
    14    20    21   ar
    15    21    22   ar
    16    22    23   ar
    17    23    24   ar
    18    24    25   ar
    19    25    26    1
    20    25    27   ar
    21    27    28   ar
    22     4     5   ar
    23     5     6    1
    24     5     7   ar
    25    15    16   ar
    26    16    17   ar
    27    17    12   ar
    28     7     1   ar
    29    28    19   ar
    30    28    22    1
    31     8     9    1
    32    23    29    1
@<TRIPOS>MOLECULE
*****
 29 32 0 0 0
SMALL
GASTEIGER

@<TRIPOS>ATOM
      1 C          63.8705   90.7675   12.4072 C.ar    1  UNL1        0.1311
      2 C          63.9004   89.4440   13.1125 C.ar    1  UNL1        0.0339
      3 C          63.1204   88.2852   12.5659 C.ar    1  UNL1        0.0027
      4 C          62.3106   88.4499   11.3141 C.ar    1  UNL1        0.0283
      5 C          62.2808   89.7734   10.6088 C.ar    1  UNL1        0.2196
      6 F          61.4710   89.9381    9.3570 F       1  UNL1       -0.1835
      7 N          63.0608   90.9321   11.1554 N.ar    1  UNL1       -0.2035
      8 N          64.6505   91.9263   12.9538 N.pl3   1  UNL1       -0.3132
      9 H          64.2186   92.5658   13.5651 H       1  UNL1        0.1485
     10 C          66.0886   92.1108   12.5690 C.3     1  UNL1        0.1348
     11 C          67.5874   96.1883    8.4306 C.3     1  UNL1        0.0327
     12 C          67.2127   95.1689    9.4652 C.ar    1  UNL1       -0.0027
     13 C          67.5426   93.7221    9.2465 C.ar    1  UNL1       -0.0015
     14 C          67.1679   92.7028   10.2811 C.ar    1  UNL1        0.0161
     15 C          66.4632   93.1302   11.5344 C.ar    1  UNL1        0.0788
     16 N          66.1333   94.5771   11.7531 N.ar    1  UNL1       -0.2468
     17 C          66.5081   95.5964   10.7185 C.ar    1  UNL1        0.0942
     18 C          61.5306   87.2910   10.7675 C.3     1  UNL1        0.0582
     19 C          62.2489   86.1280   10.1498 C.ar    1  UNL1        0.0044
     20 C          62.5464   85.9497    8.6905 C.ar    1  UNL1        0.0966
     21 N          63.2772   84.6507    8.5218 N.ar    1  UNL1       -0.2273
     22 C          63.4314   84.0262    9.8769 C.ar    1  UNL1        0.1402
     23 N          64.0684   82.7441   10.3246 N.ar    1  UNL1       -0.3377
     24 C          64.0698   82.3751   11.7785 C.ar    1  UNL1        0.0691
     25 C          63.4343   83.2882   12.7846 C.ar    1  UNL1       -0.0047
     26 C          63.4358   82.9191   14.2386 C.3     1  UNL1        0.0326
     27 C          62.7973   84.5702   12.3370 C.ar    1  UNL1       -0.0001
     28 C          62.7959   84.9392   10.8831 C.ar    1  UNL1        0.0315
     29 H          64.4855   82.1448    9.6642 H       1  UNL1        0.1674
@<TRIPOS>BOND
     1    11    12    1
     2    12    13   ar
     3    13    14   ar
     4    14    15   ar
     5    15    10    1
     6    10     8    1
     7     8     1    1
     8     1     2   ar
     9     2     3   ar
    10     3     4   ar
    11     4    18    1
    12    18    19    1
    13    19    20   ar
    14    20    21   ar
    15    21    22   ar
    16    22    23   ar
    17    23    24   ar
    18    24    25   ar
    19    25    26    1
    20    25    27   ar
    21    27    28   ar
    22     4     5   ar
    23     5     6    1
    24     5     7   ar
    25    15    16   ar
    26    16    17   ar
    27    17    12   ar
    28     7     1   ar
    29    28    19   ar
    30    28    22    1
    31     8     9    1
    32    23    29    1
@<TRIPOS>MOLECULE
*****
 29 32 0 0 0
SMALL
GASTEIGER

@<TRIPOS>ATOM
      1 C          61.8173   89.3702   11.4479 C.ar    1  UNL1        0.1311
      2 C          62.1441   89.9864   10.1199 C.ar    1  UNL1        0.0339
      3 C          63.1397   91.1052   10.0371 C.ar    1  UNL1        0.0027
      4 C          63.8085   91.6079   11.2821 C.ar    1  UNL1        0.0283
      5 C          63.4816   90.9917   12.6101 C.ar    1  UNL1        0.2196
      6 F          64.1503   91.4944   13.8551 F       1  UNL1       -0.1835
      7 N          62.4860   89.8729   12.6929 N.ar    1  UNL1       -0.2035
      8 N          60.8217   88.2513   11.5308 N.pl3   1  UNL1       -0.3132
      9 H          60.2273   88.1783   12.3123 H       1  UNL1        0.1485
     10 C          60.7316   87.2438   10.4233 C.3     1  UNL1        0.1348
     11 C          64.5243   82.5969   10.2790 C.3     1  UNL1        0.0327
     12 C          63.5761   83.7586   10.3150 C.ar    1  UNL1       -0.0027
     13 C          63.3322   84.5664    9.0749 C.ar    1  UNL1       -0.0015
     14 C          62.3841   85.7282    9.1110 C.ar    1  UNL1        0.0161
     15 C          61.6797   86.0820   10.3872 C.ar    1  UNL1        0.0788
     16 N          61.9236   85.2742   11.6274 N.ar    1  UNL1       -0.2468
     17 C          62.8718   84.1125   11.5913 C.ar    1  UNL1        0.0942
     18 C          64.8041   92.7268   11.1992 C.3     1  UNL1        0.0582
     19 C          66.2719   92.4334   11.2966 C.ar    1  UNL1        0.0044
     20 C          67.1957   92.1650   10.1457 C.ar    1  UNL1        0.0966
     21 N          68.5683   91.9226   10.7000 N.ar    1  UNL1       -0.2273
     22 C          68.4929   92.0412   12.1934 C.ar    1  UNL1        0.1402
     23 N          69.5331   91.9026   13.2650 N.ar    1  UNL1       -0.3377
     24 C          69.1541   92.0796   14.7055 C.ar    1  UNL1        0.0691
     25 C          67.7349   92.3953   15.0743 C.ar    1  UNL1       -0.0047
     26 C          67.3559   92.5724   16.5148 C.3     1  UNL1        0.0326
     27 C          66.6946   92.5340   14.0026 C.ar    1  UNL1       -0.0001
     28 C          67.0736   92.3569   12.5621 C.ar    1  UNL1        0.0315
     29 H          70.4647   91.6954   13.0230 H       1  UNL1        0.1674
@<TRIPOS>BOND
     1    11    12    1
     2    12    13   ar
     3    13    14   ar
     4    14    15   ar
     5    15    10    1
     6    10     8    1
     7     8     1    1
     8     1     2   ar
     9     2     3   ar
    10     3     4   ar
    11     4    18    1
    12    18    19    1
    13    19    20   ar
    14    20    21   ar
    15    21    22   ar
    16    22    23   ar
    17    23    24   ar
    18    24    25   ar
    19    25    26    1
    20    25    27   ar
    21    27    28   ar
    22     4     5   ar
    23     5     6    1
    24     5     7   ar
    25    15    16   ar
    26    16    17   ar
    27    17    12   ar
    28     7     1   ar
    29    28    19   ar
    30    28    22    1
    31     8     9    1
    32    23    29    1
@<TRIPOS>MOLECULE
*****
 29 32 0 0 0
SMALL
GASTEIGER

@<TRIPOS>ATOM
      1 C          60.9872   87.4276    9.5049 C.ar    1  UNL1        0.1311
      2 C          61.1065   86.8071   10.8653 C.ar    1  UNL1        0.0339
      3 C          61.9460   85.5792   11.0585 C.ar    1  UNL1        0.0027
      4 C          62.6662   84.9717    9.8913 C.ar    1  UNL1        0.0283
      5 C          62.5469   85.5922    8.5309 C.ar    1  UNL1        0.2196
      6 F          63.2671   84.9847    7.3637 F       1  UNL1       -0.1835
      7 N          61.7074   86.8201    8.3377 N.ar    1  UNL1       -0.2035
      8 N          60.1478   88.6555    9.3116 N.pl3   1  UNL1       -0.3132
      9 H          59.6231   88.7682    8.4863 H       1  UNL1        0.1485
     10 C          60.1076   89.7119   10.3759 C.3     1  UNL1        0.1348
     11 C          65.1592   91.3513   13.1673 C.3     1  UNL1        0.0327
     12 C          63.8964   90.9415   12.4694 C.ar    1  UNL1       -0.0027
     13 C          63.7049   91.2608   11.0164 C.ar    1  UNL1       -0.0015
     14 C          62.4419   90.8509   10.3186 C.ar    1  UNL1        0.0161
     15 C          61.3705   90.1217   11.0738 C.ar    1  UNL1        0.0788
     16 N          61.5620   89.8025   12.5268 N.ar    1  UNL1       -0.2468
     17 C          62.8249   90.2123   13.2247 C.ar    1  UNL1        0.0942
     18 C          63.5058   83.7437   10.0846 C.3     1  UNL1        0.0582
     19 C          63.3523   82.9182   11.3276 C.ar    1  UNL1        0.0044
     20 C          62.9887   81.4639   11.3809 C.ar    1  UNL1        0.0966
     21 N          62.9472   81.0491   12.8218 N.ar    1  UNL1       -0.2273
     22 C          63.2851   82.2470   13.6590 C.ar    1  UNL1        0.1402
     23 N          63.3971   82.4351   15.1429 N.ar    1  UNL1       -0.3377
     24 C          63.7596   83.7784   15.7033 C.ar    1  UNL1        0.0691
     25 C          64.0100   84.9336   14.7798 C.ar    1  UNL1       -0.0047
     26 C          64.3724   86.2769   15.3403 C.3     1  UNL1        0.0326
     27 C          63.8979   84.7455   13.2959 C.ar    1  UNL1       -0.0001
     28 C          63.5355   83.4022   12.7355 C.ar    1  UNL1        0.0315
     29 H          63.2328   81.6769   15.7490 H       1  UNL1        0.1674
@<TRIPOS>BOND
     1    11    12    1
     2    12    13   ar
     3    13    14   ar
     4    14    15   ar
     5    15    10    1
     6    10     8    1
     7     8     1    1
     8     1     2   ar
     9     2     3   ar
    10     3     4   ar
    11     4    18    1
    12    18    19    1
    13    19    20   ar
    14    20    21   ar
    15    21    22   ar
    16    22    23   ar
    17    23    24   ar
    18    24    25   ar
    19    25    26    1
    20    25    27   ar
    21    27    28   ar
    22     4     5   ar
    23     5     6    1
    24     5     7   ar
    25    15    16   ar
    26    16    17   ar
    27    17    12   ar
    28     7     1   ar
    29    28    19   ar
    30    28    22    1
    31     8     9    1
    32    23    29    1
@<TRIPOS>MOLECULE
*****
 29 32 0 0 0
SMALL
GASTEIGER

@<TRIPOS>ATOM
      1 C          64.2735   86.1236   14.1597 C.ar    1  UNL1        0.1311
      2 C          64.5918   87.3679   14.9346 C.ar    1  UNL1        0.0339
      3 C          64.1281   88.7032   14.4327 C.ar    1  UNL1        0.0027
      4 C          63.3461   88.7942   13.1560 C.ar    1  UNL1        0.0283
      5 C          63.0277   87.5500   12.3811 C.ar    1  UNL1        0.2196
      6 F          62.2457   87.6410   11.1043 F       1  UNL1       -0.1835
      7 N          63.4915   86.2147   12.8830 N.ar    1  UNL1       -0.2035
      8 N          64.7372   84.7883   14.6616 N.pl3   1  UNL1       -0.3132
      9 H          65.6783   84.6595   14.9205 H       1  UNL1        0.1485
     10 C          63.7672   83.6492   14.7689 C.3     1  UNL1        0.1348
     11 C          62.9084   79.9893   10.0927 C.3     1  UNL1        0.0327
     12 C          63.1231   80.9042   11.2618 C.ar    1  UNL1       -0.0027
     13 C          62.6032   80.5247   12.6166 C.ar    1  UNL1       -0.0015
     14 C          62.8179   81.4397   13.7856 C.ar    1  UNL1        0.0161
     15 C          63.5525   82.7343   13.5998 C.ar    1  UNL1        0.0788
     16 N          64.0725   83.1138   12.2450 N.ar    1  UNL1       -0.2468
     17 C          63.8577   82.1988   11.0759 C.ar    1  UNL1        0.0942
     18 C          62.8823   90.1296   12.6541 C.3     1  UNL1        0.0582
     19 C          63.8772   91.1165   12.1189 C.ar    1  UNL1        0.0044
     20 C          63.9996   91.5587   10.6909 C.ar    1  UNL1        0.0966
     21 N          65.1224   92.5499   10.6073 N.ar    1  UNL1       -0.2273
     22 C          65.6938   92.7202   11.9837 C.ar    1  UNL1        0.1402
     23 N          66.8155   93.5675   12.5070 N.ar    1  UNL1       -0.3377
     24 C          67.1675   93.5289   13.9646 C.ar    1  UNL1        0.0691
     25 C          66.3979   92.6430   14.8988 C.ar    1  UNL1       -0.0047
     26 C          66.7500   92.6044   16.3564 C.3     1  UNL1        0.0326
     27 C          65.2763   91.7957   14.3755 C.ar    1  UNL1       -0.0001
     28 C          64.9242   91.8343   12.9180 C.ar    1  UNL1        0.0315
     29 H          67.3206   94.1490   11.8938 H       1  UNL1        0.1674
@<TRIPOS>BOND
     1    11    12    1
     2    12    13   ar
     3    13    14   ar
     4    14    15   ar
     5    15    10    1
     6    10     8    1
     7     8     1    1
     8     1     2   ar
     9     2     3   ar
    10     3     4   ar
    11     4    18    1
    12    18    19    1
    13    19    20   ar
    14    20    21   ar
    15    21    22   ar
    16    22    23   ar
    17    23    24   ar
    18    24    25   ar
    19    25    26    1
    20    25    27   ar
    21    27    28   ar
    22     4     5   ar
    23     5     6    1
    24     5     7   ar
    25    15    16   ar
    26    16    17   ar
    27    17    12   ar
    28     7     1   ar
    29    28    19   ar
    30    28    22    1
    31     8     9    1
    32    23    29    1
@<TRIPOS>MOLECULE
*****
 29 32 0 0 0
SMALL
GASTEIGER

@<TRIPOS>ATOM
      1 C          63.5259   91.1948   11.1112 C.ar    1  UNL1        0.1311
      2 C          62.5590   90.8869   10.0065 C.ar    1  UNL1        0.0339
      3 C          61.8993   89.5414    9.9407 C.ar    1  UNL1        0.0027
      4 C          62.2064   88.5038   10.9795 C.ar    1  UNL1        0.0283
      5 C          63.1733   88.8117   12.0842 C.ar    1  UNL1        0.2196
      6 F          63.4804   87.7742   13.1230 F       1  UNL1       -0.1835
      7 N          63.8330   90.1572   12.1500 N.ar    1  UNL1       -0.2035
      8 N          64.1857   92.5403   11.1770 N.pl3   1  UNL1       -0.3132
      9 H          63.6366   93.3558   11.2284 H       1  UNL1        0.1485
     10 C          65.6821   92.6433   11.1647 C.3     1  UNL1        0.1348
     11 C          68.7457   92.4426   16.3196 C.3     1  UNL1        0.0327
     12 C          67.9799   92.4928   15.0309 C.ar    1  UNL1       -0.0027
     13 C          68.5449   91.8534   13.7972 C.ar    1  UNL1       -0.0015
     14 C          67.7789   91.9035   12.5085 C.ar    1  UNL1        0.0161
     15 C          66.4480   92.5932   12.4535 C.ar    1  UNL1        0.0788
     16 N          65.8830   93.2326   13.6871 N.ar    1  UNL1       -0.2468
     17 C          66.6489   93.1824   14.9758 C.ar    1  UNL1        0.0942
     18 C          61.5466   87.1583   10.9136 C.3     1  UNL1        0.0582
     19 C          62.2645   86.0009   10.2851 C.ar    1  UNL1        0.0044
     20 C          62.5103   85.8074    8.8181 C.ar    1  UNL1        0.0966
     21 N          63.2603   84.5207    8.6395 N.ar    1  UNL1       -0.2273
     22 C          63.4780   83.9190    9.9962 C.ar    1  UNL1        0.1402
     23 N          64.1572   82.6563   10.4368 N.ar    1  UNL1       -0.3377
     24 C          64.2209   82.3083   11.8945 C.ar    1  UNL1        0.0691
     25 C          63.6054   83.2231   12.9115 C.ar    1  UNL1       -0.0047
     26 C          63.6691   82.8752   14.3693 C.3     1  UNL1        0.0326
     27 C          62.9262   84.4859   12.4709 C.ar    1  UNL1       -0.0001
     28 C          62.8626   84.8338   11.0132 C.ar    1  UNL1        0.0315
     29 H          64.5612   82.0559    9.7693 H       1  UNL1        0.1674
@<TRIPOS>BOND
     1    11    12    1
     2    12    13   ar
     3    13    14   ar
     4    14    15   ar
     5    15    10    1
     6    10     8    1
     7     8     1    1
     8     1     2   ar
     9     2     3   ar
    10     3     4   ar
    11     4    18    1
    12    18    19    1
    13    19    20   ar
    14    20    21   ar
    15    21    22   ar
    16    22    23   ar
    17    23    24   ar
    18    24    25   ar
    19    25    26    1
    20    25    27   ar
    21    27    28   ar
    22     4     5   ar
    23     5     6    1
    24     5     7   ar
    25    15    16   ar
    26    16    17   ar
    27    17    12   ar
    28     7     1   ar
    29    28    19   ar
    30    28    22    1
    31     8     9    1
    32    23    29    1
