@<TRIPOS>MOLECULE
*****
 55 59 0 0 0
SMALL
GASTEIGER

@<TRIPOS>ATOM
      1 C          63.2165   90.5148   12.7708 C.3     1  UNL1        0.2170
      2 C          63.2352   89.6901   14.0236 C.3     1  UNL1        0.0525
      3 C          64.2905   89.9284   15.0627 C.3     1  UNL1        0.0257
      4 C          65.3269   90.9915   14.8490 C.3     1  UNL1        0.0939
      5 N          65.3081   91.8163   13.5962 N.am    1  UNL1       -0.2737
      6 C          66.3445   92.8794   13.3826 C.2     1  UNL1        0.2506
      7 O          66.4730   93.7896   12.1973 O.2     1  UNL1       -0.2699
      8 C          64.2528   91.5779   12.5572 C.3     1  UNL1        0.1230
      9 N          62.5803   85.1821   12.1328 N.pl3   1  UNL1       -0.3017
     10 C          63.7663   86.0653   12.3846 C.3     1  UNL1        0.1124
     11 C          63.5830   87.5484   12.5133 C.3     1  UNL1        0.1149
     12 N          62.2137   88.1485   12.3903 N.am    1  UNL1       -0.2732
     13 C          62.0305   89.6316   12.5190 C.2     1  UNL1        0.2636
     14 O          60.6612   90.2316   12.3960 O.2     1  UNL1       -0.2711
     15 C          61.0278   87.2653   12.1385 C.3     1  UNL1        0.1149
     16 C          61.2111   85.7820   12.0098 C.3     1  UNL1        0.1124
     17 C          62.4575   82.8016   13.1664 C.ar    1  UNL1        0.1518
     18 C          62.6409   81.3185   13.0376 C.ar    1  UNL1        0.0382
     19 C          63.1303   80.7326   11.7464 C.ar    1  UNL1        0.0032
     20 C          63.4364   81.6298   10.5840 C.ar    1  UNL1        0.0015
     21 C          63.2530   83.1129   10.7128 C.ar    1  UNL1        0.0176
     22 C          62.7636   83.6989   12.0040 C.ar    1  UNL1        0.0824
     23 O          61.9681   83.3875   14.4576 O.3     1  UNL1       -0.4715
     24 C          62.9452   83.7364   15.5409 C.3     1  UNL1        0.2374
     25 C          63.0918   85.1605   15.9886 C.3     1  UNL1        0.1894
     26 C          62.6173   86.6317   18.0769 C.3     1  UNL1        0.1743
     27 O          62.1232   85.7395   16.9769 O.3     1  UNL1       -0.3471
     28 C          67.3997   93.1177   14.4217 C.ar    1  UNL1        0.0766
     29 C          67.1109   94.0090   15.5931 C.ar    1  UNL1        0.1033
     30 N          68.1662   94.2473   16.6322 N.ar    1  UNL1       -0.2422
     31 C          69.5101   93.5945   16.4999 C.ar    1  UNL1        0.0988
     32 C          69.7989   92.7032   15.3284 C.ar    1  UNL1        0.0247
     33 C          68.7437   92.4649   14.2893 C.ar    1  UNL1        0.0788
     34 C          69.0324   91.5737   13.1179 C.3     1  UNL1        0.4188
     35 F          69.3210   90.6824   11.9463 F       1  UNL1       -0.1659
     36 F          67.5829   91.1940   13.0495 F       1  UNL1       -0.1659
     37 F          70.4819   91.9533   13.1861 F       1  UNL1       -0.1659
     38 O          62.7858   91.0328   11.4306 O.3     1  UNL1       -0.4723
     39 C          62.0248   90.1438   10.4922 C.ar    1  UNL1        0.1390
     40 C          60.5932   90.4492   10.1649 C.ar    1  UNL1        0.0369
     41 C          59.8322   89.5602    9.2265 C.ar    1  UNL1        0.0070
     42 C          60.5029   88.3658    8.6153 C.ar    1  UNL1        0.0716
     43 C          61.9345   88.0604    8.9425 C.ar    1  UNL1        0.0070
     44 C          62.6955   88.9495    9.8810 C.ar    1  UNL1        0.0369
     45 C          59.7419   87.4769    7.6769 C.3     1  UNL1        0.4186
     46 F          58.9808   86.5880    6.7384 F       1  UNL1       -0.1659
     47 F          60.6043   86.2602    7.8376 F       1  UNL1       -0.1659
     48 F          58.7796   88.5936    7.3996 F       1  UNL1       -0.1659
     49 C          64.2341   92.4027   11.3043 C.3     1  UNL1        0.0557
     50 C          65.4921   92.5862   10.5082 C.3     1  UNL1        0.1415
     51 O          66.6288   91.6160   10.3800 O.3     1  UNL1       -0.3818
     52 H          67.3120   91.9927    9.8035 H       1  UNL1        0.2104
     53 C          65.7094   93.8498    9.7297 C.3     1  UNL1        0.1663
     54 O          64.9850   95.0279   10.3107 O.3     1  UNL1       -0.3795
     55 H          64.0298   94.8596   10.2959 H       1  UNL1        0.2105
@<TRIPOS>BOND
     1    26    27    1
     2    27    25    1
     3    25    24    1
     4    24    23    1
     5    23    17    1
     6    17    18   ar
     7    18    19   ar
     8    19    20   ar
     9    20    21   ar
    10    21    22   ar
    11    22     9    1
    12     9    10    1
    13    10    11    1
    14    11    12    1
    15    12    13   am
    16    13    14    2
    17    13     1    1
    18     1    38    1
    19    38    39    1
    20    39    40   ar
    21    40    41   ar
    22    41    42   ar
    23    42    45    1
    24    45    46    1
    25    45    47    1
    26    45    48    1
    27    42    43   ar
    28    43    44   ar
    29     1     2    1
    30     2     3    1
    31     3     4    1
    32     4     5    1
    33     5     6   am
    34     6     7    2
    35     6    28    1
    36    28    29   ar
    37    29    30   ar
    38    30    31   ar
    39    31    32   ar
    40    32    33   ar
    41    33    34    1
    42    34    35    1
    43    34    36    1
    44    34    37    1
    45     5     8    1
    46     8    49    1
    47    49    50    1
    48    50    51    1
    49    50    53    1
    50    53    54    1
    51    12    15    1
    52    15    16    1
    53    22    17   ar
    54    16     9    1
    55     8     1    1
    56    44    39   ar
    57    33    28   ar
    58    51    52    1
    59    54    55    1
@<TRIPOS>MOLECULE
*****
 55 59 0 0 0
SMALL
GASTEIGER

@<TRIPOS>ATOM
      1 C          63.0693   88.1466   13.2762 C.3     1  UNL1        0.2170
      2 C          62.4719   88.3864   11.9214 C.3     1  UNL1        0.0525
      3 C          62.3735   87.2605   10.9351 C.3     1  UNL1        0.0257
      4 C          62.8726   85.8948   11.3037 C.3     1  UNL1        0.0939
      5 N          63.4701   85.6550   12.6586 N.am    1  UNL1       -0.2737
      6 C          63.9692   84.2894   13.0271 C.2     1  UNL1        0.2506
      7 O          64.5903   83.8761   14.3283 O.2     1  UNL1       -0.2699
      8 C          63.5684   86.7810   13.6448 C.3     1  UNL1        0.1230
      9 N          65.0802   92.6393   11.0353 N.pl3   1  UNL1       -0.3017
     10 C          65.4118   91.1810   10.9194 C.3     1  UNL1        0.1124
     11 C          64.6310   90.1695   11.7050 C.3     1  UNL1        0.1149
     12 N          63.5185   90.6163   12.6066 N.am    1  UNL1       -0.2732
     13 C          62.7377   89.6049   13.3922 C.2     1  UNL1        0.2636
     14 O          61.6253   90.0517   14.2937 O.2     1  UNL1       -0.2711
     15 C          63.1869   92.0746   12.7225 C.3     1  UNL1        0.1149
     16 C          63.9678   93.0861   11.9369 C.3     1  UNL1        0.1124
     17 C          67.1691   93.2670    9.6237 C.ar    1  UNL1        0.1518
     18 C          67.9499   94.2785    8.8381 C.ar    1  UNL1        0.0382
     19 C          67.4227   95.6737    8.6785 C.ar    1  UNL1        0.0032
     20 C          66.1148   96.0575    9.3045 C.ar    1  UNL1        0.0015
     21 C          65.3340   95.0460   10.0901 C.ar    1  UNL1        0.0176
     22 C          65.8611   93.6508   10.2497 C.ar    1  UNL1        0.0824
     23 O          67.6962   91.8718    9.7833 O.3     1  UNL1       -0.4715
     24 C          68.7816   91.5895   10.7793 C.3     1  UNL1        0.2374
     25 C          68.5854   91.9451   12.2233 C.3     1  UNL1        0.1894
     26 C          69.9958   92.5878   14.3085 C.3     1  UNL1        0.1743
     27 O          69.6449   91.6063   13.2298 O.3     1  UNL1       -0.3471
     28 C          63.8708   83.1635   12.0409 C.ar    1  UNL1        0.0766
     29 C          64.5869   83.2537   10.7259 C.ar    1  UNL1        0.1033
     30 N          64.4885   82.1277    9.7396 N.ar    1  UNL1       -0.2422
     31 C          63.6742   80.9117   10.0683 C.ar    1  UNL1        0.0988
     32 C          62.9581   80.8216   11.3834 C.ar    1  UNL1        0.0247
     33 C          63.0564   81.9474   12.3695 C.ar    1  UNL1        0.0788
     34 C          62.3404   81.8573   13.6845 C.3     1  UNL1        0.4188
     35 F          61.6243   81.7673   14.9996 F       1  UNL1       -0.1659
     36 F          61.6597   83.1640   13.4034 F       1  UNL1       -0.1659
     37 F          63.0211   80.5506   13.9657 F       1  UNL1       -0.1659
     38 O          63.5516   88.4133   14.6713 O.3     1  UNL1       -0.4723
     39 C          64.4354   89.5936   14.9465 C.ar    1  UNL1        0.1390
     40 C          63.9472   90.7076   15.8243 C.ar    1  UNL1        0.0369
     41 C          64.8311   91.8880   16.0995 C.ar    1  UNL1        0.0070
     42 C          66.2031   91.9542   15.4969 C.ar    1  UNL1        0.0716
     43 C          66.6912   90.8402   14.6191 C.ar    1  UNL1        0.0070
     44 C          65.8074   89.6599   14.3439 C.ar    1  UNL1        0.0369
     45 C          67.0868   93.1346   15.7721 C.3     1  UNL1        0.4186
     46 F          67.9706   94.3149   16.0474 F       1  UNL1       -0.1659
     47 F          66.5353   94.0296   14.7022 F       1  UNL1       -0.1659
     48 F          67.7511   92.3778   16.8840 F       1  UNL1       -0.1659
     49 C          64.1659   86.5411   14.9997 C.3     1  UNL1        0.0557
     50 C          63.3323   85.9370   16.0907 C.3     1  UNL1        0.1415
     51 O          62.6612   84.5956   16.0763 O.3     1  UNL1       -0.3818
     52 H          62.1886   84.4615   16.9127 H       1  UNL1        0.2104
     53 C          63.0993   86.6953   17.3637 C.3     1  UNL1        0.1663
     54 O          62.3740   87.9908   17.1497 O.3     1  UNL1       -0.3795
     55 H          62.9063   88.5693   16.5815 H       1  UNL1        0.2105
@<TRIPOS>BOND
     1    26    27    1
     2    27    25    1
     3    25    24    1
     4    24    23    1
     5    23    17    1
     6    17    18   ar
     7    18    19   ar
     8    19    20   ar
     9    20    21   ar
    10    21    22   ar
    11    22     9    1
    12     9    10    1
    13    10    11    1
    14    11    12    1
    15    12    13   am
    16    13    14    2
    17    13     1    1
    18     1    38    1
    19    38    39    1
    20    39    40   ar
    21    40    41   ar
    22    41    42   ar
    23    42    45    1
    24    45    46    1
    25    45    47    1
    26    45    48    1
    27    42    43   ar
    28    43    44   ar
    29     1     2    1
    30     2     3    1
    31     3     4    1
    32     4     5    1
    33     5     6   am
    34     6     7    2
    35     6    28    1
    36    28    29   ar
    37    29    30   ar
    38    30    31   ar
    39    31    32   ar
    40    32    33   ar
    41    33    34    1
    42    34    35    1
    43    34    36    1
    44    34    37    1
    45     5     8    1
    46     8    49    1
    47    49    50    1
    48    50    51    1
    49    50    53    1
    50    53    54    1
    51    12    15    1
    52    15    16    1
    53    22    17   ar
    54    16     9    1
    55     8     1    1
    56    44    39   ar
    57    33    28   ar
    58    51    52    1
    59    54    55    1
@<TRIPOS>MOLECULE
*****
 55 59 0 0 0
SMALL
GASTEIGER

@<TRIPOS>ATOM
      1 C          63.2995   90.1039   12.8338 C.3     1  UNL1        0.2170
      2 C          63.5177   89.1201   13.9448 C.3     1  UNL1        0.0525
      3 C          64.7219   89.2441   14.8307 C.3     1  UNL1        0.0257
      4 C          65.7077   90.3519   14.6055 C.3     1  UNL1        0.0939
      5 N          65.4895   91.3358   13.4943 N.am    1  UNL1       -0.2737
      6 C          66.4754   92.4435   13.2691 C.2     1  UNL1        0.2506
      7 O          66.4130   93.5067   12.2128 O.2     1  UNL1       -0.2699
      8 C          64.2854   91.2117   12.6086 C.3     1  UNL1        0.1230
      9 N          62.5819   84.7907   12.1240 N.pl3   1  UNL1       -0.3017
     10 C          63.7892   85.6619   12.3066 C.3     1  UNL1        0.1124
     11 C          63.6260   87.1425   12.4823 C.3     1  UNL1        0.1149
     12 N          62.2554   87.7521   12.4754 N.am    1  UNL1       -0.2732
     13 C          62.0922   89.2327   12.6511 C.2     1  UNL1        0.2636
     14 O          60.7216   89.8422   12.6442 O.2     1  UNL1       -0.2711
     15 C          61.0481   86.8809   12.2928 C.3     1  UNL1        0.1149
     16 C          61.2113   85.4001   12.1171 C.3     1  UNL1        0.1124
     17 C          62.4395   82.3814   13.0860 C.ar    1  UNL1        0.1518
     18 C          62.6028   80.9008   12.9102 C.ar    1  UNL1        0.0382
     19 C          63.0718   80.3486   11.5967 C.ar    1  UNL1        0.0032
     20 C          63.3774   81.2771   10.4590 C.ar    1  UNL1        0.0015
     21 C          63.2141   82.7577   10.6348 C.ar    1  UNL1        0.0176
     22 C          62.7452   83.3099   11.9483 C.ar    1  UNL1        0.0824
     23 O          61.9706   82.9336   14.3994 O.3     1  UNL1       -0.4715
     24 C          62.9677   83.4408   15.3987 C.3     1  UNL1        0.2374
     25 C          63.0146   84.9015   15.7363 C.3     1  UNL1        0.1894
     26 C          62.5985   86.4584   17.7742 C.3     1  UNL1        0.1743
     27 O          62.0895   85.4611   16.7761 O.3     1  UNL1       -0.3471
     28 C          67.6796   92.5675   14.1549 C.ar    1  UNL1        0.0766
     29 C          69.0560   92.4498   13.5704 C.ar    1  UNL1        0.1033
     30 N          70.2601   92.5738   14.4562 N.ar    1  UNL1       -0.2422
     31 C          70.0879   92.8155   15.9265 C.ar    1  UNL1        0.0988
     32 C          68.7114   92.9332   16.5111 C.ar    1  UNL1        0.0247
     33 C          67.5074   92.8092   15.6253 C.ar    1  UNL1        0.0788
     34 C          66.1310   92.9269   16.2098 C.3     1  UNL1        0.4188
     35 F          64.7545   93.0445   16.7943 F       1  UNL1       -0.1659
     36 F          66.5161   91.9800   17.3075 F       1  UNL1       -0.1659
     37 F          65.7457   93.8738   15.1121 F       1  UNL1       -0.1659
     38 O          62.6619   90.7852   11.6593 O.3     1  UNL1       -0.4723
     39 C          61.9046   89.9798   10.6455 C.ar    1  UNL1        0.1390
     40 C          62.5694   88.8253    9.9562 C.ar    1  UNL1        0.0369
     41 C          61.8120   88.0199    8.9424 C.ar    1  UNL1        0.0070
     42 C          60.3898   88.3691    8.6178 C.ar    1  UNL1        0.0716
     43 C          59.7250   89.5236    9.3071 C.ar    1  UNL1        0.0070
     44 C          60.4823   90.3290   10.3209 C.ar    1  UNL1        0.0369
     45 C          59.6325   87.5638    7.6040 C.3     1  UNL1        0.4186
     46 F          58.8752   86.7584    6.5902 F       1  UNL1       -0.1659
     47 F          59.8891   86.2166    8.2118 F       1  UNL1       -0.1659
     48 F          59.2809   88.8221    6.8671 F       1  UNL1       -0.1659
     49 C          64.0671   92.1956   11.4974 C.3     1  UNL1        0.0557
     50 C          65.2097   92.5884   10.6083 C.3     1  UNL1        0.1415
     51 O          66.3512   91.7204   10.1686 O.3     1  UNL1       -0.3818
     52 H          66.9450   92.2320    9.5971 H       1  UNL1        0.2104
     53 C          65.2885   93.9825   10.0604 C.3     1  UNL1        0.1663
     54 O          66.5155   94.2172    9.2299 O.3     1  UNL1       -0.3795
     55 H          67.3057   94.0952    9.7790 H       1  UNL1        0.2105
@<TRIPOS>BOND
     1    26    27    1
     2    27    25    1
     3    25    24    1
     4    24    23    1
     5    23    17    1
     6    17    18   ar
     7    18    19   ar
     8    19    20   ar
     9    20    21   ar
    10    21    22   ar
    11    22     9    1
    12     9    10    1
    13    10    11    1
    14    11    12    1
    15    12    13   am
    16    13    14    2
    17    13     1    1
    18     1    38    1
    19    38    39    1
    20    39    40   ar
    21    40    41   ar
    22    41    42   ar
    23    42    45    1
    24    45    46    1
    25    45    47    1
    26    45    48    1
    27    42    43   ar
    28    43    44   ar
    29     1     2    1
    30     2     3    1
    31     3     4    1
    32     4     5    1
    33     5     6   am
    34     6     7    2
    35     6    28    1
    36    28    29   ar
    37    29    30   ar
    38    30    31   ar
    39    31    32   ar
    40    32    33   ar
    41    33    34    1
    42    34    35    1
    43    34    36    1
    44    34    37    1
    45     5     8    1
    46     8    49    1
    47    49    50    1
    48    50    51    1
    49    50    53    1
    50    53    54    1
    51    12    15    1
    52    15    16    1
    53    22    17   ar
    54    16     9    1
    55     8     1    1
    56    44    39   ar
    57    33    28   ar
    58    51    52    1
    59    54    55    1
@<TRIPOS>MOLECULE
*****
 55 59 0 0 0
SMALL
GASTEIGER

@<TRIPOS>ATOM
      1 C          63.2649   90.5972   12.8170 C.3     1  UNL1        0.2170
      2 C          63.2796   89.7794   14.0743 C.3     1  UNL1        0.0525
      3 C          64.3370   90.0172   15.1114 C.3     1  UNL1        0.0257
      4 C          65.3796   91.0728   14.8911 C.3     1  UNL1        0.0939
      5 N          65.3649   91.8907   13.6336 N.am    1  UNL1       -0.2737
      6 C          66.4075   92.9463   13.4133 C.2     1  UNL1        0.2506
      7 O          66.5407   93.8490   12.2229 O.2     1  UNL1       -0.2699
      8 C          64.3075   91.6528   12.5967 C.3     1  UNL1        0.1230
      9 N          62.5704   85.2513   12.3831 N.pl3   1  UNL1       -0.3017
     10 C          63.7618   86.1287   12.6291 C.3     1  UNL1        0.1124
     11 C          63.5962   87.6182   12.6917 C.3     1  UNL1        0.1149
     12 N          62.2391   88.2303   12.5083 N.am    1  UNL1       -0.2732
     13 C          62.0735   89.7198   12.5709 C.2     1  UNL1        0.2636
     14 O          60.7164   90.3318   12.3875 O.2     1  UNL1       -0.2711
     15 C          61.0476   87.3529   12.2623 C.3     1  UNL1        0.1149
     16 C          61.2133   85.8633   12.1997 C.3     1  UNL1        0.1124
     17 C          63.3296   83.1238   11.0995 C.ar    1  UNL1        0.1518
     18 C          63.4952   81.6343   11.0370 C.ar    1  UNL1        0.0382
     19 C          63.0673   80.7828   12.1953 C.ar    1  UNL1        0.0032
     20 C          62.4738   81.4207   13.4163 C.ar    1  UNL1        0.0015
     21 C          62.3082   82.9102   13.4788 C.ar    1  UNL1        0.0176
     22 C          62.7360   83.7617   12.3205 C.ar    1  UNL1        0.0824
     23 O          63.7574   83.9753    9.9412 O.3     1  UNL1       -0.4715
     24 C          62.7347   84.7403    9.1545 C.3     1  UNL1        0.2374
     25 C          62.9467   84.9890    7.6906 C.3     1  UNL1        0.1894
     26 C          61.8947   84.2652    5.4279 C.3     1  UNL1        0.1743
     27 O          61.7791   84.9660    6.7491 O.3     1  UNL1       -0.3471
     28 C          67.4649   93.1841   14.4504 C.ar    1  UNL1        0.0766
     29 C          67.1939   94.1098   15.5992 C.ar    1  UNL1        0.1033
     30 N          68.2513   94.3477   16.6362 N.ar    1  UNL1       -0.2422
     31 C          69.5796   93.6598   16.5245 C.ar    1  UNL1        0.0988
     32 C          69.8505   92.7340   15.3757 C.ar    1  UNL1        0.0247
     33 C          68.7932   92.4962   14.3387 C.ar    1  UNL1        0.0788
     34 C          69.0641   91.5706   13.1899 C.3     1  UNL1        0.4188
     35 F          69.3349   90.6448   12.0411 F       1  UNL1       -0.1659
     36 F          67.7424   90.8994   13.4191 F       1  UNL1       -0.1659
     37 F          70.3859   92.2416   12.9607 F       1  UNL1       -0.1659
     38 O          62.8364   91.1103   11.4742 O.3     1  UNL1       -0.4723
     39 C          62.0436   90.2307   10.5533 C.ar    1  UNL1        0.1390
     40 C          60.6024   90.5407   10.2763 C.ar    1  UNL1        0.0369
     41 C          59.8096   89.6611    9.3555 C.ar    1  UNL1        0.0070
     42 C          60.4581   88.4716    8.7116 C.ar    1  UNL1        0.0716
     43 C          61.8993   88.1617    8.9886 C.ar    1  UNL1        0.0070
     44 C          62.6921   89.0412    9.9095 C.ar    1  UNL1        0.0369
     45 C          59.6653   87.5921    7.7908 C.3     1  UNL1        0.4186
     46 F          58.8725   86.7125    6.8701 F       1  UNL1       -0.1659
     47 F          59.3557   88.6376    6.7608 F       1  UNL1       -0.1659
     48 F          59.8799   86.4307    8.7156 F       1  UNL1       -0.1659
     49 C          64.2928   92.4707   11.3392 C.3     1  UNL1        0.0557
     50 C          65.5538   92.6510   10.5470 C.3     1  UNL1        0.1415
     51 O          66.7146   91.7041   10.4698 O.3     1  UNL1       -0.3818
     52 H          67.3941   92.0727    9.8839 H       1  UNL1        0.2104
     53 C          65.7483   93.8856    9.7177 C.3     1  UNL1        0.1663
     54 O          65.0248   95.0798   10.2659 O.3     1  UNL1       -0.3795
     55 H          64.0708   94.9043   10.2736 H       1  UNL1        0.2105
@<TRIPOS>BOND
     1    26    27    1
     2    27    25    1
     3    25    24    1
     4    24    23    1
     5    23    17    1
     6    17    18   ar
     7    18    19   ar
     8    19    20   ar
     9    20    21   ar
    10    21    22   ar
    11    22     9    1
    12     9    10    1
    13    10    11    1
    14    11    12    1
    15    12    13   am
    16    13    14    2
    17    13     1    1
    18     1    38    1
    19    38    39    1
    20    39    40   ar
    21    40    41   ar
    22    41    42   ar
    23    42    45    1
    24    45    46    1
    25    45    47    1
    26    45    48    1
    27    42    43   ar
    28    43    44   ar
    29     1     2    1
    30     2     3    1
    31     3     4    1
    32     4     5    1
    33     5     6   am
    34     6     7    2
    35     6    28    1
    36    28    29   ar
    37    29    30   ar
    38    30    31   ar
    39    31    32   ar
    40    32    33   ar
    41    33    34    1
    42    34    35    1
    43    34    36    1
    44    34    37    1
    45     5     8    1
    46     8    49    1
    47    49    50    1
    48    50    51    1
    49    50    53    1
    50    53    54    1
    51    12    15    1
    52    15    16    1
    53    22    17   ar
    54    16     9    1
    55     8     1    1
    56    44    39   ar
    57    33    28   ar
    58    51    52    1
    59    54    55    1
@<TRIPOS>MOLECULE
*****
 55 59 0 0 0
SMALL
GASTEIGER

@<TRIPOS>ATOM
      1 C          63.8520   88.3308   13.7439 C.3     1  UNL1        0.2170
      2 C          64.2534   87.9801   15.1460 C.3     1  UNL1        0.0525
      3 C          64.2066   86.5527   15.6048 C.3     1  UNL1        0.0257
      4 C          63.7584   85.4760   14.6614 C.3     1  UNL1        0.0939
      5 N          63.3570   85.8268   13.2592 N.am    1  UNL1       -0.2737
      6 C          62.9089   84.7501   12.3159 C.2     1  UNL1        0.2506
      7 O          62.4757   84.9220   10.8902 O.2     1  UNL1       -0.2699
      8 C          63.4038   87.2541   12.8006 C.3     1  UNL1        0.1230
      9 N          65.6047   92.8905   11.4230 N.pl3   1  UNL1       -0.3017
     10 C          65.2536   91.5277   10.9040 C.3     1  UNL1        0.1124
     11 C          64.7864   90.4621   11.8506 C.3     1  UNL1        0.1149
     12 N          64.6703   90.7592   13.3164 N.am    1  UNL1       -0.2732
     13 C          64.2031   89.6936   14.2630 C.2     1  UNL1        0.2636
     14 O          64.0871   89.9908   15.7286 O.2     1  UNL1       -0.2711
     15 C          65.0214   92.1221   13.8354 C.3     1  UNL1        0.1149
     16 C          65.4886   93.1877   12.8887 C.3     1  UNL1        0.1124
     17 C          67.1937   93.6722    9.5220 C.ar    1  UNL1        0.1518
     18 C          67.6608   94.7379    8.5753 C.ar    1  UNL1        0.0382
     19 C          67.0062   96.0875    8.5831 C.ar    1  UNL1        0.0032
     20 C          65.8844   96.3714    9.5375 C.ar    1  UNL1        0.0015
     21 C          65.4172   95.3058   10.4841 C.ar    1  UNL1        0.0176
     22 C          66.0719   93.9562   10.4764 C.ar    1  UNL1        0.0824
     23 O          67.8483   92.3227    9.5142 O.3     1  UNL1       -0.4715
     24 C          68.9009   91.9938   10.5310 C.3     1  UNL1        0.2374
     25 C          68.5018   91.5229   11.8982 C.3     1  UNL1        0.1894
     26 C          68.7017   92.2207   14.3928 C.3     1  UNL1        0.1743
     27 O          69.3495   91.8669   13.0870 O.3     1  UNL1       -0.3471
     28 C          62.8620   83.3227   12.7746 C.ar    1  UNL1        0.0766
     29 C          62.1953   82.9734   14.0721 C.ar    1  UNL1        0.1033
     30 N          62.1485   81.5460   14.5308 N.ar    1  UNL1       -0.2422
     31 C          62.7684   80.4680   13.6921 C.ar    1  UNL1        0.0988
     32 C          63.4352   80.8173   12.3945 C.ar    1  UNL1        0.0247
     33 C          63.4820   82.2446   11.9359 C.ar    1  UNL1        0.0788
     34 C          64.1487   82.5940   10.6384 C.3     1  UNL1        0.4188
     35 F          64.8154   82.9433    9.3408 F       1  UNL1       -0.1659
     36 F          63.1106   81.8082    9.8934 F       1  UNL1       -0.1659
     37 F          65.1868   83.3798   11.3833 F       1  UNL1       -0.1659
     38 O          63.5726   89.1548   12.5221 O.3     1  UNL1       -0.4723
     39 C          62.2074   89.7379   12.3068 C.ar    1  UNL1        0.1390
     40 C          61.1055   89.4477   13.2823 C.ar    1  UNL1        0.0369
     41 C          59.7403   90.0308   13.0671 C.ar    1  UNL1        0.0070
     42 C          59.4771   90.9041   11.8762 C.ar    1  UNL1        0.0716
     43 C          60.5789   91.1943   10.9007 C.ar    1  UNL1        0.0070
     44 C          61.9441   90.6112   11.1160 C.ar    1  UNL1        0.0369
     45 C          58.1119   91.4872   11.6611 C.3     1  UNL1        0.4186
     46 F          56.7467   92.0702   11.4458 F       1  UNL1       -0.1659
     47 F          58.5281   92.9282   11.6494 F       1  UNL1       -0.1659
     48 F          57.5248   90.1069   11.6463 F       1  UNL1       -0.1659
     49 C          63.0024   87.6048   11.3984 C.3     1  UNL1        0.0557
     50 C          61.6279   87.2636   10.9042 C.3     1  UNL1        0.1415
     51 O          60.4631   86.7968   11.7259 O.3     1  UNL1       -0.3818
     52 H          59.6979   86.6501   11.1482 H       1  UNL1        0.2104
     53 C          61.3068   87.3765    9.4433 C.3     1  UNL1        0.1663
     54 O          60.4779   86.2340    8.9355 O.3     1  UNL1       -0.3795
     55 H          60.9697   85.4049    9.0431 H       1  UNL1        0.2105
@<TRIPOS>BOND
     1    26    27    1
     2    27    25    1
     3    25    24    1
     4    24    23    1
     5    23    17    1
     6    17    18   ar
     7    18    19   ar
     8    19    20   ar
     9    20    21   ar
    10    21    22   ar
    11    22     9    1
    12     9    10    1
    13    10    11    1
    14    11    12    1
    15    12    13   am
    16    13    14    2
    17    13     1    1
    18     1    38    1
    19    38    39    1
    20    39    40   ar
    21    40    41   ar
    22    41    42   ar
    23    42    45    1
    24    45    46    1
    25    45    47    1
    26    45    48    1
    27    42    43   ar
    28    43    44   ar
    29     1     2    1
    30     2     3    1
    31     3     4    1
    32     4     5    1
    33     5     6   am
    34     6     7    2
    35     6    28    1
    36    28    29   ar
    37    29    30   ar
    38    30    31   ar
    39    31    32   ar
    40    32    33   ar
    41    33    34    1
    42    34    35    1
    43    34    36    1
    44    34    37    1
    45     5     8    1
    46     8    49    1
    47    49    50    1
    48    50    51    1
    49    50    53    1
    50    53    54    1
    51    12    15    1
    52    15    16    1
    53    22    17   ar
    54    16     9    1
    55     8     1    1
    56    44    39   ar
    57    33    28   ar
    58    51    52    1
    59    54    55    1
@<TRIPOS>MOLECULE
*****
 55 59 0 0 0
SMALL
GASTEIGER

@<TRIPOS>ATOM
      1 C          60.9046   95.8427   -3.2233 C.3     1  UNL1        0.2170
      2 C          61.8706   95.8703   -2.0761 C.3     1  UNL1        0.0525
      3 C          63.3469   95.8220   -2.3376 C.3     1  UNL1        0.0257
      4 C          63.8571   95.7461   -3.7461 C.3     1  UNL1        0.0939
      5 N          62.8909   95.7186   -4.8933 N.am    1  UNL1       -0.2737
      6 C          63.4011   95.6428   -6.3018 C.2     1  UNL1        0.2506
      7 O          62.5820   95.6067   -7.5578 O.2     1  UNL1       -0.2699
      8 C          61.4147   95.7669   -4.6318 C.3     1  UNL1        0.1230
      9 N          60.5656   93.3312    1.5545 N.pl3   1  UNL1       -0.3017
     10 C          61.5273   93.2559    0.4058 C.3     1  UNL1        0.1124
     11 C          61.3197   94.1181   -0.8039 C.3     1  UNL1        0.1149
     12 N          60.1505   95.0558   -0.8649 N.am    1  UNL1       -0.2732
     13 C          59.9429   95.9181   -2.0746 C.2     1  UNL1        0.2636
     14 O          58.7737   96.8557   -2.1355 O.2     1  UNL1       -0.2711
     15 C          59.1888   95.1312    0.2838 C.3     1  UNL1        0.1149
     16 C          59.3964   94.2688    1.4935 C.3     1  UNL1        0.1124
     17 C          62.1345   91.9165    3.0669 C.ar    1  UNL1        0.1518
     18 C          62.3421   91.0542    4.2765 C.ar    1  UNL1        0.0382
     19 C          61.1883   90.7443    5.1836 C.ar    1  UNL1        0.0032
     20 C          59.8269   91.2967    4.8809 C.ar    1  UNL1        0.0015
     21 C          59.6194   92.1590    3.6713 C.ar    1  UNL1        0.0176
     22 C          60.7732   92.4689    2.7642 C.ar    1  UNL1        0.0824
     23 O          63.2883   92.2264    2.1598 O.3     1  UNL1       -0.4715
     24 C          64.0884   93.4785    2.3651 C.3     1  UNL1        0.2374
     25 C          64.6454   94.2149    1.1830 C.3     1  UNL1        0.1894
     26 C          63.5543   96.5629    1.3998 C.3     1  UNL1        0.1743
     27 O          64.7747   95.7089    1.2230 O.3     1  UNL1       -0.3471
     28 C          64.8774   95.5945   -6.5632 C.ar    1  UNL1        0.0766
     29 C          65.6246   96.8560   -6.8797 C.ar    1  UNL1        0.1033
     30 N          67.1009   96.8077   -7.1412 N.ar    1  UNL1       -0.2422
     31 C          67.8299   95.4980   -7.0861 C.ar    1  UNL1        0.0988
     32 C          67.0826   94.2364   -6.7695 C.ar    1  UNL1        0.0247
     33 C          65.6064   94.2847   -6.5081 C.ar    1  UNL1        0.0788
     34 C          64.8591   93.0232   -6.1916 C.3     1  UNL1        0.4188
     35 F          64.1117   91.7617   -5.8750 F       1  UNL1       -0.1659
     36 F          65.4728   93.0030   -4.8231 F       1  UNL1       -0.1659
     37 F          64.2453   93.0434   -7.5601 F       1  UNL1       -0.1659
     38 O          59.6045   95.8414   -3.9714 O.3     1  UNL1       -0.4723
     39 C          58.6750   94.6695   -3.8577 C.ar    1  UNL1        0.1390
     40 C          57.2167   94.8362   -4.1668 C.ar    1  UNL1        0.0369
     41 C          56.2872   93.6644   -4.0531 C.ar    1  UNL1        0.0070
     42 C          56.8161   92.3259   -3.6304 C.ar    1  UNL1        0.0716
     43 C          58.2743   92.1592   -3.3214 C.ar    1  UNL1        0.0070
     44 C          59.2038   93.3310   -3.4350 C.ar    1  UNL1        0.0369
     45 C          55.8865   91.1541   -3.5167 C.3     1  UNL1        0.4186
     46 F          54.9570   89.9823   -3.4030 F       1  UNL1       -0.1659
     47 F          55.4623   91.1169   -4.9550 F       1  UNL1       -0.1659
     48 F          56.1998   91.0477   -2.0536 F       1  UNL1       -0.1659
     49 C          60.4486   95.7394   -5.7790 C.3     1  UNL1        0.0557
     50 C          60.2676   94.4823   -6.5771 C.3     1  UNL1        0.1415
     51 O          61.2048   93.3131   -6.6447 O.3     1  UNL1       -0.3818
     52 H          60.8380   92.6386   -7.2376 H       1  UNL1        0.2104
     53 C          59.0427   94.3013   -7.4237 C.3     1  UNL1        0.1663
     54 O          58.4221   92.9439   -7.2740 O.3     1  UNL1       -0.3795
     55 H          59.0540   92.2661   -7.5607 H       1  UNL1        0.2105
@<TRIPOS>BOND
     1    26    27    1
     2    27    25    1
     3    25    24    1
     4    24    23    1
     5    23    17    1
     6    17    18   ar
     7    18    19   ar
     8    19    20   ar
     9    20    21   ar
    10    21    22   ar
    11    22     9    1
    12     9    10    1
    13    10    11    1
    14    11    12    1
    15    12    13   am
    16    13    14    2
    17    13     1    1
    18     1    38    1
    19    38    39    1
    20    39    40   ar
    21    40    41   ar
    22    41    42   ar
    23    42    45    1
    24    45    46    1
    25    45    47    1
    26    45    48    1
    27    42    43   ar
    28    43    44   ar
    29     1     2    1
    30     2     3    1
    31     3     4    1
    32     4     5    1
    33     5     6   am
    34     6     7    2
    35     6    28    1
    36    28    29   ar
    37    29    30   ar
    38    30    31   ar
    39    31    32   ar
    40    32    33   ar
    41    33    34    1
    42    34    35    1
    43    34    36    1
    44    34    37    1
    45     5     8    1
    46     8    49    1
    47    49    50    1
    48    50    51    1
    49    50    53    1
    50    53    54    1
    51    12    15    1
    52    15    16    1
    53    22    17   ar
    54    16     9    1
    55     8     1    1
    56    44    39   ar
    57    33    28   ar
    58    51    52    1
    59    54    55    1
@<TRIPOS>MOLECULE
*****
 55 59 0 0 0
SMALL
GASTEIGER

@<TRIPOS>ATOM
      1 C          61.3674   88.1269   10.4578 C.3     1  UNL1        0.2170
      2 C          60.5863   89.0796   11.3135 C.3     1  UNL1        0.0525
      3 C          59.5503   89.9690   10.6924 C.3     1  UNL1        0.0257
      4 C          59.2955   89.9058    9.2156 C.3     1  UNL1        0.0939
      5 N          60.0767   88.9531    8.3598 N.am    1  UNL1       -0.2737
      6 C          59.8219   88.8899    6.8830 C.2     1  UNL1        0.2506
      7 O          60.5063   88.0025    5.8860 O.2     1  UNL1       -0.2699
      8 C          61.1125   88.0637    8.9810 C.3     1  UNL1        0.1230
      9 N          64.9470   90.6540   13.6279 N.pl3   1  UNL1       -0.3017
     10 C          64.3488   90.9584   12.2865 C.3     1  UNL1        0.1124
     11 C          63.3550   90.0146   11.6769 C.3     1  UNL1        0.1149
     12 N          62.9594   88.7664   12.4088 N.am    1  UNL1       -0.2732
     13 C          61.9656   87.8226   11.7992 C.2     1  UNL1        0.2636
     14 O          61.5701   86.5745   12.5311 O.2     1  UNL1       -0.2711
     15 C          63.5576   88.4621   13.7502 C.3     1  UNL1        0.1149
     16 C          64.5515   89.4059   14.3598 C.3     1  UNL1        0.1124
     17 C          67.1047   92.0874   13.4277 C.ar    1  UNL1        0.1518
     18 C          68.0984   93.0312   14.0372 C.ar    1  UNL1        0.0382
     19 C          67.9283   93.4855   15.4566 C.ar    1  UNL1        0.0032
     20 C          66.7645   92.9961   16.2664 C.ar    1  UNL1        0.0015
     21 C          65.7707   92.0523   15.6569 C.ar    1  UNL1        0.0176
     22 C          65.9408   91.5979   14.2375 C.ar    1  UNL1        0.0824
     23 O          67.2748   91.6330   12.0083 O.3     1  UNL1       -0.4715
     24 C          67.0720   92.6018   10.8813 C.3     1  UNL1        0.2374
     25 C          66.4554   93.9431   11.1470 C.3     1  UNL1        0.1894
     26 C          67.6776   95.1431    9.1935 C.3     1  UNL1        0.1743
     27 O          67.0721   95.1806   10.5653 O.3     1  UNL1       -0.3471
     28 C          58.7859   89.7793    6.2619 C.ar    1  UNL1        0.0766
     29 C          57.3339   89.5725    6.5762 C.ar    1  UNL1        0.1033
     30 N          56.2979   90.4619    5.9551 N.ar    1  UNL1       -0.2422
     31 C          56.7140   91.5582    5.0197 C.ar    1  UNL1        0.0988
     32 C          58.1662   91.7650    4.7053 C.ar    1  UNL1        0.0247
     33 C          59.2020   90.8757    5.3264 C.ar    1  UNL1        0.0788
     34 C          60.6540   91.0825    5.0121 C.3     1  UNL1        0.4188
     35 F          62.1062   91.2892    4.6979 F       1  UNL1       -0.1659
     36 F          61.0025   90.8156    6.4465 F       1  UNL1       -0.1659
     37 F          60.3057   91.3493    3.5778 F       1  UNL1       -0.1659
     38 O          62.3562   87.0686   10.0680 O.3     1  UNL1       -0.4723
     39 C          62.5004   85.8321   10.9049 C.ar    1  UNL1        0.1390
     40 C          63.4347   85.8254   12.0783 C.ar    1  UNL1        0.0369
     41 C          63.5789   84.5890   12.9152 C.ar    1  UNL1        0.0070
     42 C          62.7888   83.3592   12.5786 C.ar    1  UNL1        0.0716
     43 C          61.8545   83.3659   11.4052 C.ar    1  UNL1        0.0070
     44 C          61.7103   84.6023   10.5683 C.ar    1  UNL1        0.0369
     45 C          62.9330   82.1228   13.4156 C.3     1  UNL1        0.4186
     46 F          63.0774   80.8863   14.2525 F       1  UNL1       -0.1659
     47 F          61.5975   82.2040   14.0937 F       1  UNL1       -0.1659
     48 F          64.2963   81.8891   12.8352 F       1  UNL1       -0.1659
     49 C          61.8937   87.1110    8.1252 C.3     1  UNL1        0.0557
     50 C          61.2114   85.9278    7.5050 C.3     1  UNL1        0.1415
     51 O          59.7492   85.5981    7.5592 O.3     1  UNL1       -0.3818
     52 H          59.5850   84.7752    7.0725 H       1  UNL1        0.2104
     53 C          62.0109   84.9216    6.7314 C.3     1  UNL1        0.1663
     54 O          61.1587   84.0160    5.8925 O.3     1  UNL1       -0.3795
     55 H          60.5640   83.5083    6.4665 H       1  UNL1        0.2105
@<TRIPOS>BOND
     1    26    27    1
     2    27    25    1
     3    25    24    1
     4    24    23    1
     5    23    17    1
     6    17    18   ar
     7    18    19   ar
     8    19    20   ar
     9    20    21   ar
    10    21    22   ar
    11    22     9    1
    12     9    10    1
    13    10    11    1
    14    11    12    1
    15    12    13   am
    16    13    14    2
    17    13     1    1
    18     1    38    1
    19    38    39    1
    20    39    40   ar
    21    40    41   ar
    22    41    42   ar
    23    42    45    1
    24    45    46    1
    25    45    47    1
    26    45    48    1
    27    42    43   ar
    28    43    44   ar
    29     1     2    1
    30     2     3    1
    31     3     4    1
    32     4     5    1
    33     5     6   am
    34     6     7    2
    35     6    28    1
    36    28    29   ar
    37    29    30   ar
    38    30    31   ar
    39    31    32   ar
    40    32    33   ar
    41    33    34    1
    42    34    35    1
    43    34    36    1
    44    34    37    1
    45     5     8    1
    46     8    49    1
    47    49    50    1
    48    50    51    1
    49    50    53    1
    50    53    54    1
    51    12    15    1
    52    15    16    1
    53    22    17   ar
    54    16     9    1
    55     8     1    1
    56    44    39   ar
    57    33    28   ar
    58    51    52    1
    59    54    55    1
@<TRIPOS>MOLECULE
*****
 55 59 0 0 0
SMALL
GASTEIGER

@<TRIPOS>ATOM
      1 C          61.2045   88.4641   10.4740 C.3     1  UNL1        0.2170
      2 C          61.9119   89.7587   10.7452 C.3     1  UNL1        0.0525
      3 C          61.9031   90.8484    9.7144 C.3     1  UNL1        0.0257
      4 C          61.1869   90.6435    8.4125 C.3     1  UNL1        0.0939
      5 N          60.4794   89.3488    8.1413 N.am    1  UNL1       -0.2737
      6 C          59.7632   89.1440    6.8394 C.2     1  UNL1        0.2506
      7 O          59.0101   87.9213    6.4061 O.2     1  UNL1       -0.2699
      8 C          60.4883   88.2592    9.1721 C.3     1  UNL1        0.1230
      9 N          64.9654   90.8027   13.5782 N.pl3   1  UNL1       -0.3017
     10 C          64.4303   91.0810   12.2048 C.3     1  UNL1        0.1124
     11 C          63.3551   90.2087   11.6279 C.3     1  UNL1        0.1149
     12 N          62.8149   89.0580   12.4243 N.am    1  UNL1       -0.2732
     13 C          61.7396   88.1858   11.8474 C.2     1  UNL1        0.2636
     14 O          61.1995   87.0352   12.6438 O.2     1  UNL1       -0.2711
     15 C          63.3500   88.7798   13.7977 C.3     1  UNL1        0.1149
     16 C          64.4253   89.6521   14.3747 C.3     1  UNL1        0.1124
     17 C          66.2901   93.0377   13.5800 C.ar    1  UNL1        0.1518
     18 C          67.3653   93.9100   14.1569 C.ar    1  UNL1        0.0382
     19 C          68.1912   93.4196   15.3090 C.ar    1  UNL1        0.0032
     20 C          67.9419   92.0569   15.8842 C.ar    1  UNL1        0.0015
     21 C          66.8666   91.1847   15.3073 C.ar    1  UNL1        0.0176
     22 C          66.0407   91.6751   14.1552 C.ar    1  UNL1        0.0824
     23 O          65.4642   93.5281   12.4278 O.3     1  UNL1       -0.4715
     24 C          66.0312   94.5382   11.4748 C.3     1  UNL1        0.2374
     25 C          66.6817   94.0852   10.2014 C.3     1  UNL1        0.1894
     26 C          68.5479   92.5781    9.2034 C.3     1  UNL1        0.1743
     27 O          68.0963   93.5866   10.2179 O.3     1  UNL1       -0.3471
     28 C          59.7544   90.2337    5.8086 C.ar    1  UNL1        0.0766
     29 C          61.0471   90.7361    5.2373 C.ar    1  UNL1        0.1033
     30 N          61.0383   91.8258    4.2065 N.ar    1  UNL1       -0.2422
     31 C          59.7368   92.4131    3.7472 C.ar    1  UNL1        0.0988
     32 C          58.4440   91.9107    4.3185 C.ar    1  UNL1        0.0247
     33 C          58.4528   90.8211    5.3492 C.ar    1  UNL1        0.0788
     34 C          57.1601   90.3186    5.9206 C.3     1  UNL1        0.4188
     35 F          55.8674   89.8161    6.4921 F       1  UNL1       -0.1659
     36 F          57.8842   89.8526    7.1488 F       1  UNL1       -0.1659
     37 F          56.4360   90.7845    4.6924 F       1  UNL1       -0.1659
     38 O          60.6830   87.0728   10.6798 O.3     1  UNL1       -0.4723
     39 C          61.6354   85.9491   10.9633 C.ar    1  UNL1        0.1390
     40 C          62.6288   85.5271    9.9218 C.ar    1  UNL1        0.0369
     41 C          63.5812   84.4035   10.2053 C.ar    1  UNL1        0.0070
     42 C          63.5401   83.7018   11.5304 C.ar    1  UNL1        0.0716
     43 C          62.5466   84.1237   12.5720 C.ar    1  UNL1        0.0070
     44 C          61.5942   85.2474   12.2884 C.ar    1  UNL1        0.0369
     45 C          64.4925   82.5782   11.8138 C.3     1  UNL1        0.4186
     46 F          65.4449   81.4545   12.0972 F       1  UNL1       -0.1659
     47 F          64.5893   82.7897   13.2957 F       1  UNL1       -0.1659
     48 F          64.5120   82.2270   10.3556 F       1  UNL1       -0.1659
     49 C          59.7809   86.9645    8.9009 C.3     1  UNL1        0.0557
     50 C          60.2541   86.0687    7.7946 C.3     1  UNL1        0.1415
     51 O          59.4099   85.1849    6.9250 O.3     1  UNL1       -0.3818
     52 H          59.9770   84.7166    6.2926 H       1  UNL1        0.2104
     53 C          61.7149   85.9947    7.4626 C.3     1  UNL1        0.1663
     54 O          62.0598   84.8212    6.5942 O.3     1  UNL1       -0.3795
     55 H          61.8447   83.9989    7.0615 H       1  UNL1        0.2105
@<TRIPOS>BOND
     1    26    27    1
     2    27    25    1
     3    25    24    1
     4    24    23    1
     5    23    17    1
     6    17    18   ar
     7    18    19   ar
     8    19    20   ar
     9    20    21   ar
    10    21    22   ar
    11    22     9    1
    12     9    10    1
    13    10    11    1
    14    11    12    1
    15    12    13   am
    16    13    14    2
    17    13     1    1
    18     1    38    1
    19    38    39    1
    20    39    40   ar
    21    40    41   ar
    22    41    42   ar
    23    42    45    1
    24    45    46    1
    25    45    47    1
    26    45    48    1
    27    42    43   ar
    28    43    44   ar
    29     1     2    1
    30     2     3    1
    31     3     4    1
    32     4     5    1
    33     5     6   am
    34     6     7    2
    35     6    28    1
    36    28    29   ar
    37    29    30   ar
    38    30    31   ar
    39    31    32   ar
    40    32    33   ar
    41    33    34    1
    42    34    35    1
    43    34    36    1
    44    34    37    1
    45     5     8    1
    46     8    49    1
    47    49    50    1
    48    50    51    1
    49    50    53    1
    50    53    54    1
    51    12    15    1
    52    15    16    1
    53    22    17   ar
    54    16     9    1
    55     8     1    1
    56    44    39   ar
    57    33    28   ar
    58    51    52    1
    59    54    55    1
