@<TRIPOS>MOLECULE
*****
 25 27 0 0 0
SMALL
GASTEIGER

@<TRIPOS>ATOM
      1 C          64.0099   88.0616   13.8005 C.2     1  UNL1        0.3580
      2 N          63.1592   87.7072   12.6170 N.2     1  UNL1       -0.0039
      3 C          62.6999   88.7804   11.6752 C.2     1  UNL1        0.3159
      4 C          63.0911   90.2082   11.9170 C.3     1  UNL1        0.2333
      5 C          63.9417   90.5627   13.1005 C.2     1  UNL1        0.3644
      6 O          64.3330   91.9904   13.3422 O.2     1  UNL1       -0.2422
      7 N          64.4011   89.4894   14.0422 N.am    1  UNL1        0.0289
      8 N          61.8492   88.4260   10.4916 N.pl3   1  UNL1       -0.1888
      9 C          61.8583   87.0257    9.9539 C.3     1  UNL1        0.2343
     10 C          61.0077   86.6712    8.7704 C.3     1  UNL1        0.1929
     11 O          60.1479   87.7171    8.1245 O.3     1  UNL1       -0.3449
     12 C          60.1388   89.1174    8.6622 C.3     1  UNL1        0.1929
     13 C          60.9895   89.4718    9.8458 C.3     1  UNL1        0.2343
     14 C          64.4693   86.9883   14.7424 C.3     1  UNL1        0.2066
     15 O          65.4386   84.5911   14.4899 O.2     1  UNL1       -0.2741
     16 C          64.2855   85.5442   14.3808 C.2     1  UNL1        0.2387
     17 N          62.9486   85.0531   13.9101 N.am    1  UNL1       -0.2834
     18 H          62.1917   85.6787   13.8385 H       1  UNL1        0.1549
     19 C          62.7648   83.6090   13.5486 C.ar    1  UNL1        0.0512
     20 C          62.2343   82.6428   14.5659 C.ar    1  UNL1        0.0147
     21 C          62.0505   81.1987   14.2044 C.ar    1  UNL1        0.0021
     22 C          62.3972   80.7208   12.8255 C.ar    1  UNL1        0.0115
     23 C          62.9278   81.6870   11.8081 C.ar    1  UNL1        0.0589
     24 CL         63.2745   81.2091   10.4293 Cl      1  UNL1       -0.0822
     25 C          63.1115   83.1312   12.1697 C.ar    1  UNL1        0.0261
@<TRIPOS>BOND
     1    15    16    2
     2    16    14    1
     3    14     1    1
     4     1     2    1
     5     2     3    2
     6     3     8    1
     7     8     9    1
     8     9    10    1
     9    10    11    1
    10    11    12    1
    11    12    13    1
    12     3     4    1
    13     4     5    1
    14     5     6    2
    15     5     7    1
    16    16    17   am
    17    17    19    1
    18    19    20   ar
    19    20    21   ar
    20    21    22   ar
    21    22    23   ar
    22    23    24    1
    23    23    25   ar
    24     7     1    2
    25    25    19   ar
    26    13     8    1
    27    17    18    1
@<TRIPOS>MOLECULE
*****
 25 27 0 0 0
SMALL
GASTEIGER

@<TRIPOS>ATOM
      1 C          64.0532   88.2651   13.9132 C.2     1  UNL1        0.3580
      2 N          64.8000   89.5607   14.0296 N.2     1  UNL1       -0.0039
      3 C          64.5565   90.6585   13.0368 C.2     1  UNL1        0.3159
      4 C          63.5662   90.4606   11.9277 C.3     1  UNL1        0.2333
      5 C          62.8194   89.1650   11.8114 C.2     1  UNL1        0.3644
      6 O          61.8290   88.9672   10.7023 O.2     1  UNL1       -0.2422
      7 N          63.0629   88.0673   12.8041 N.am    1  UNL1        0.0289
      8 N          65.3034   91.9542   13.1532 N.pl3   1  UNL1       -0.1888
      9 C          65.4303   92.8563   11.9615 C.3     1  UNL1        0.2343
     10 C          66.1771   94.1519   12.0777 C.3     1  UNL1        0.1929
     11 O          66.7971   94.5455   13.3857 O.3     1  UNL1       -0.3449
     12 C          66.6702   93.6434   14.5774 C.3     1  UNL1        0.1929
     13 C          65.9233   92.3477   14.4611 C.3     1  UNL1        0.2343
     14 C          64.2967   87.1673   14.9060 C.3     1  UNL1        0.2066
     15 O          65.4002   84.8490   14.5086 O.2     1  UNL1       -0.2741
     16 C          64.1888   85.7332   14.4798 C.2     1  UNL1        0.2387
     17 N          62.8695   85.1832   14.0247 N.am    1  UNL1       -0.2834
     18 H          62.0744   85.7635   14.0058 H       1  UNL1        0.1549
     19 C          62.7616   83.7491   13.5985 C.ar    1  UNL1        0.0512
     20 C          62.2640   82.7150   14.5644 C.ar    1  UNL1        0.0147
     21 C          62.1562   81.2809   14.1382 C.ar    1  UNL1        0.0021
     22 C          62.5459   80.8808   12.7460 C.ar    1  UNL1        0.0115
     23 C          63.0434   81.9149   11.7801 C.ar    1  UNL1        0.0589
     24 CL         63.4331   81.5150   10.3879 Cl      1  UNL1       -0.0822
     25 C          63.1513   83.3491   12.2064 C.ar    1  UNL1        0.0261
@<TRIPOS>BOND
     1    15    16    2
     2    16    14    1
     3    14     1    1
     4     1     2    1
     5     2     3    2
     6     3     8    1
     7     8     9    1
     8     9    10    1
     9    10    11    1
    10    11    12    1
    11    12    13    1
    12     3     4    1
    13     4     5    1
    14     5     6    2
    15     5     7    1
    16    16    17   am
    17    17    19    1
    18    19    20   ar
    19    20    21   ar
    20    21    22   ar
    21    22    23   ar
    22    23    24    1
    23    23    25   ar
    24     7     1    2
    25    25    19   ar
    26    13     8    1
    27    17    18    1
@<TRIPOS>MOLECULE
*****
 25 27 0 0 0
SMALL
GASTEIGER

@<TRIPOS>ATOM
      1 C          62.0909   87.6861   10.7195 C.2     1  UNL1        0.3580
      2 N          62.3872   86.8090   11.8997 N.2     1  UNL1       -0.0039
      3 C          62.7519   85.3691   11.6911 C.2     1  UNL1        0.3159
      4 C          62.8204   84.8062   10.3024 C.3     1  UNL1        0.2333
      5 C          62.5240   85.6833    9.1222 C.2     1  UNL1        0.3644
      6 O          62.5924   85.1205    7.7335 O.2     1  UNL1       -0.2422
      7 N          62.1593   87.1232    9.3308 N.am    1  UNL1        0.0289
      8 N          63.0483   84.4919   12.8713 N.pl3   1  UNL1       -0.1888
      9 C          63.6954   85.0726   14.0937 C.3     1  UNL1        0.2343
     10 C          63.9918   84.1956   15.2738 C.3     1  UNL1        0.1929
     11 O          63.6410   82.7377   15.2317 O.3     1  UNL1       -0.3449
     12 C          62.9939   82.1570   14.0094 C.3     1  UNL1        0.1929
     13 C          62.6976   83.0342   12.8292 C.3     1  UNL1        0.2343
     14 C          61.7261   89.1261   10.9280 C.3     1  UNL1        0.2066
     15 O          63.1124   91.2866   10.5273 O.2     1  UNL1       -0.2741
     16 C          62.7670   90.1050   11.3843 C.2     1  UNL1        0.2387
     17 N          63.4626   89.9022   12.6978 N.am    1  UNL1       -0.2834
     18 H          63.2359   89.1267   13.2603 H       1  UNL1        0.1549
     19 C          64.5035   90.8811   13.1542 C.ar    1  UNL1        0.0512
     20 C          65.2004   90.6774   14.4667 C.ar    1  UNL1        0.0147
     21 C          66.2413   91.6563   14.9231 C.ar    1  UNL1        0.0021
     22 C          66.5853   92.8389   14.0668 C.ar    1  UNL1        0.0115
     23 C          65.8884   93.0426   12.7543 C.ar    1  UNL1        0.0589
     24 CL         66.2325   94.2252   11.8981 Cl      1  UNL1       -0.0822
     25 C          64.8475   92.0637   12.2979 C.ar    1  UNL1        0.0261
@<TRIPOS>BOND
     1    15    16    2
     2    16    14    1
     3    14     1    1
     4     1     2    1
     5     2     3    2
     6     3     8    1
     7     8     9    1
     8     9    10    1
     9    10    11    1
    10    11    12    1
    11    12    13    1
    12     3     4    1
    13     4     5    1
    14     5     6    2
    15     5     7    1
    16    16    17   am
    17    17    19    1
    18    19    20   ar
    19    20    21   ar
    20    21    22   ar
    21    22    23   ar
    22    23    24    1
    23    23    25   ar
    24     7     1    2
    25    25    19   ar
    26    13     8    1
    27    17    18    1
@<TRIPOS>MOLECULE
*****
 25 27 0 0 0
SMALL
GASTEIGER

@<TRIPOS>ATOM
      1 C          63.2660   84.7069   14.9247 C.2     1  UNL1        0.3580
      2 N          63.0420   85.1886   13.5220 N.2     1  UNL1       -0.0039
      3 C          62.7952   84.2011   12.4203 C.2     1  UNL1        0.3159
      4 C          62.7724   82.7318   12.7213 C.3     1  UNL1        0.2333
      5 C          62.9964   82.2500   14.1240 C.2     1  UNL1        0.3644
      6 O          62.9736   80.7807   14.4250 O.2     1  UNL1       -0.2422
      7 N          63.2432   83.2375   15.2257 N.am    1  UNL1        0.0289
      8 N          62.5712   84.6829   11.0175 N.pl3   1  UNL1       -0.1888
      9 C          63.4292   84.1659    9.9010 C.3     1  UNL1        0.2343
     10 C          63.2053   84.6476    8.4982 C.3     1  UNL1        0.1929
     11 O          62.1232   85.6463    8.2119 O.3     1  UNL1       -0.3449
     12 C          61.2652   86.1632    9.3284 C.3     1  UNL1        0.1929
     13 C          61.4892   85.6815   10.7312 C.3     1  UNL1        0.2343
     14 C          63.5128   85.6944   16.0265 C.3     1  UNL1        0.2066
     15 O          63.1185   88.1758   16.6878 O.2     1  UNL1       -0.2741
     16 C          63.6266   87.1565   15.7116 C.2     1  UNL1        0.2387
     17 N          64.2486   87.5994   14.4204 N.am    1  UNL1       -0.2834
     18 H          64.5821   86.9305   13.7797 H       1  UNL1        0.1549
     19 C          64.3625   89.0615   14.1055 C.ar    1  UNL1        0.0512
     20 C          63.5851   89.6455   12.9633 C.ar    1  UNL1        0.0147
     21 C          63.6990   91.1076   12.6484 C.ar    1  UNL1        0.0021
     22 C          64.5902   91.9859   13.4757 C.ar    1  UNL1        0.0115
     23 C          65.3676   91.4019   14.6180 C.ar    1  UNL1        0.0589
     24 CL         66.2588   92.2801   15.4453 Cl      1  UNL1       -0.0822
     25 C          65.2537   89.9397   14.9329 C.ar    1  UNL1        0.0261
@<TRIPOS>BOND
     1    15    16    2
     2    16    14    1
     3    14     1    1
     4     1     2    1
     5     2     3    2
     6     3     8    1
     7     8     9    1
     8     9    10    1
     9    10    11    1
    10    11    12    1
    11    12    13    1
    12     3     4    1
    13     4     5    1
    14     5     6    2
    15     5     7    1
    16    16    17   am
    17    17    19    1
    18    19    20   ar
    19    20    21   ar
    20    21    22   ar
    21    22    23   ar
    22    23    24    1
    23    23    25   ar
    24     7     1    2
    25    25    19   ar
    26    13     8    1
    27    17    18    1
@<TRIPOS>MOLECULE
*****
 25 27 0 0 0
SMALL
GASTEIGER

@<TRIPOS>ATOM
      1 C          62.7503   83.4452   14.6884 C.2     1  UNL1        0.3580
      2 N          62.6713   84.3143   13.4684 N.2     1  UNL1       -0.0039
      3 C          62.5419   83.6906   12.1104 C.2     1  UNL1        0.3159
      4 C          62.4916   82.1978   11.9723 C.3     1  UNL1        0.2333
      5 C          62.5707   81.3287   13.1923 C.2     1  UNL1        0.3644
      6 O          62.5204   79.8360   13.0543 O.2     1  UNL1       -0.2422
      7 N          62.7000   81.9524   14.5503 N.am    1  UNL1        0.0289
      8 N          62.4629   84.5597   10.8903 N.pl3   1  UNL1       -0.1888
      9 C          61.4871   85.6980   10.8423 C.3     1  UNL1        0.2343
     10 C          61.4080   86.5670    9.6223 C.3     1  UNL1        0.1929
     11 O          62.3047   86.2979    8.4503 O.3     1  UNL1       -0.3449
     12 C          63.2805   85.1597    8.4983 C.3     1  UNL1        0.1929
     13 C          63.3596   84.2906    9.7184 C.3     1  UNL1        0.2343
     14 C          62.8797   84.0689   16.0465 C.3     1  UNL1        0.2066
     15 O          61.9801   86.2246   17.1838 O.2     1  UNL1       -0.2741
     16 C          62.8859   85.5621   16.1885 C.2     1  UNL1        0.2387
     17 N          63.7980   86.3929   15.3353 N.am    1  UNL1       -0.2834
     18 H          64.3926   85.9581   14.6821 H       1  UNL1        0.1549
     19 C          63.8043   87.8861   15.4774 C.ar    1  UNL1        0.0512
     20 C          63.2193   88.5255   16.7018 C.ar    1  UNL1        0.0147
     21 C          63.2255   90.0187   16.8438 C.ar    1  UNL1        0.0021
     22 C          63.8168   90.8726   15.7615 C.ar    1  UNL1        0.0115
     23 C          64.4018   90.2333   14.5372 C.ar    1  UNL1        0.0589
     24 CL         64.9930   91.0871   13.4549 Cl      1  UNL1       -0.0822
     25 C          64.3955   88.7400   14.3951 C.ar    1  UNL1        0.0261
@<TRIPOS>BOND
     1    15    16    2
     2    16    14    1
     3    14     1    1
     4     1     2    1
     5     2     3    2
     6     3     8    1
     7     8     9    1
     8     9    10    1
     9    10    11    1
    10    11    12    1
    11    12    13    1
    12     3     4    1
    13     4     5    1
    14     5     6    2
    15     5     7    1
    16    16    17   am
    17    17    19    1
    18    19    20   ar
    19    20    21   ar
    20    21    22   ar
    21    22    23   ar
    22    23    24    1
    23    23    25   ar
    24     7     1    2
    25    25    19   ar
    26    13     8    1
    27    17    18    1
@<TRIPOS>MOLECULE
*****
 25 27 0 0 0
SMALL
GASTEIGER

@<TRIPOS>ATOM
      1 C          63.6968   87.3969   14.2380 C.2     1  UNL1        0.3580
      2 N          63.6056   86.0570   13.5699 N.2     1  UNL1       -0.0039
      3 C          63.3796   84.8229   14.3920 C.2     1  UNL1        0.3159
      4 C          63.2448   84.9287   15.8822 C.3     1  UNL1        0.2333
      5 C          63.3360   86.2685   16.5503 C.2     1  UNL1        0.3644
      6 O          63.2012   86.3743   18.0405 O.2     1  UNL1       -0.2422
      7 N          63.5620   87.5026   15.7282 N.am    1  UNL1        0.0289
      8 N          63.2885   83.4829   13.7239 N.pl3   1  UNL1       -0.1888
      9 C          62.8902   83.3900   12.2808 C.3     1  UNL1        0.2343
     10 C          62.7990   82.0501   11.6127 C.3     1  UNL1        0.1929
     11 O          63.1061   80.8031   12.3878 O.3     1  UNL1       -0.3449
     12 C          63.5044   80.8960   13.8309 C.3     1  UNL1        0.1929
     13 C          63.5956   82.2360   14.4990 C.3     1  UNL1        0.2343
     14 C          63.9227   88.6311   13.4159 C.3     1  UNL1        0.2066
     15 O          63.2087   90.1760   11.4530 O.2     1  UNL1       -0.2741
     16 C          63.1108   88.8659   12.1767 C.2     1  UNL1        0.2387
     17 N          62.2009   87.7904   11.6612 N.am    1  UNL1       -0.2834
     18 H          62.1366   86.9305   12.1363 H       1  UNL1        0.1549
     19 C          61.3890   88.0252   10.4221 C.ar    1  UNL1        0.0512
     20 C          60.9599   89.4159   10.0588 C.ar    1  UNL1        0.0147
     21 C          60.1480   89.6507    8.8197 C.ar    1  UNL1        0.0021
     22 C          59.7651   88.4948    7.9437 C.ar    1  UNL1        0.0115
     23 C          60.1941   87.1041    8.3069 C.ar    1  UNL1        0.0589
     24 CL         59.8112   85.9482    7.4310 Cl      1  UNL1       -0.0822
     25 C          61.0061   86.8694    9.5462 C.ar    1  UNL1        0.0261
@<TRIPOS>BOND
     1    15    16    2
     2    16    14    1
     3    14     1    1
     4     1     2    1
     5     2     3    2
     6     3     8    1
     7     8     9    1
     8     9    10    1
     9    10    11    1
    10    11    12    1
    11    12    13    1
    12     3     4    1
    13     4     5    1
    14     5     6    2
    15     5     7    1
    16    16    17   am
    17    17    19    1
    18    19    20   ar
    19    20    21   ar
    20    21    22   ar
    21    22    23   ar
    22    23    24    1
    23    23    25   ar
    24     7     1    2
    25    25    19   ar
    26    13     8    1
    27    17    18    1
