@<TRIPOS>MOLECULE
*****
 29 31 0 0 0
SMALL
GASTEIGER

@<TRIPOS>ATOM
      1 C          64.5503   90.0751   14.0197 C.ar    1  UNL1        0.1644
      2 N          64.8744   88.8010   14.7419 N.ar    1  UNL1       -0.2335
      3 C          64.2036   87.6730   14.0156 C.ar    1  UNL1        0.0939
      4 C          64.1700   86.1950   14.2693 C.ar    1  UNL1        0.0236
      5 C          63.3976   85.2939   13.3518 C.ar    1  UNL1        0.0749
      6 C          62.6589   85.8709   12.1809 C.ar    1  UNL1        0.0520
      7 C          61.8865   84.9698   11.2634 C.3     1  UNL1        0.0374
      8 C          62.6925   87.3489   11.9272 C.ar    1  UNL1        0.2931
      9 C          63.4648   88.2499   12.8445 C.ar    1  UNL1        0.1175
     10 S          63.6791   89.7345   12.8471 S.2     1  UNL1       -0.0559
     11 N          66.4689   94.2967   11.2364 N.3     1  UNL1       -0.2676
     12 C          66.0036   92.9231   10.8532 C.3     1  UNL1        0.0940
     13 C          65.5192   91.9738   11.9088 C.3     1  UNL1        0.1111
     14 N          65.5000   92.3980   13.3474 N.am    1  UNL1       -0.2716
     15 C          65.0156   91.4487   14.4029 C.2     1  UNL1        0.2731
     16 O          64.9964   91.8729   15.8415 O.2     1  UNL1       -0.2677
     17 C          65.9653   93.7716   13.7305 C.3     1  UNL1        0.1111
     18 C          66.4498   94.7209   12.6750 C.3     1  UNL1        0.0940
     19 C          66.9534   95.2460   10.1809 C.3     1  UNL1        0.1046
     20 C          67.9368   94.7810    9.1482 C.3     1  UNL1        0.1595
     21 C          68.7841   92.3303    8.9864 C.3     1  UNL1        0.1742
     22 O          68.9500   93.7312    9.4964 O.3     1  UNL1       -0.3496
     23 C          63.3640   83.8159   13.6055 C.3     1  UNL1        0.4185
     24 F          63.3305   82.3379   13.8592 F       1  UNL1       -0.1659
     25 F          64.5981   83.6445   12.7703 F       1  UNL1       -0.1659
     26 F          62.1299   83.9873   14.4407 F       1  UNL1       -0.1659
     27 N          61.9537   87.9258   10.7561 N.pl3   1  UNL1        0.0811
     28 O          62.4324   87.6559    9.3604 O.2     1  UNL1        0.0415
     29 O          60.7361   88.7727   10.9808 O.co2   1  UNL1       -0.5760
@<TRIPOS>UNITY_ATOM_ATTR
27 1
charge 1
29 1
charge -1
@<TRIPOS>BOND
     1    21    22    1
     2    22    20    1
     3    20    19    1
     4    19    11    1
     5    11    12    1
     6    12    13    1
     7    13    14    1
     8    14    15   am
     9    15    16    2
    10    15     1    1
    11     1     2   ar
    12     2     3   ar
    13     3     4   ar
    14     4     5   ar
    15     5    23    1
    16    23    24    1
    17    23    25    1
    18    23    26    1
    19     5     6   ar
    20     6     7    1
    21     6     8   ar
    22     8    27    1
    23    27    28    2
    24    27    29    1
    25     8     9   ar
    26     9    10   ar
    27    14    17    1
    28    17    18    1
    29    18    11    1
    30    10     1   ar
    31     9     3   ar
@<TRIPOS>MOLECULE
*****
 29 31 0 0 0
SMALL
GASTEIGER

@<TRIPOS>ATOM
      1 C          63.9067   89.7264   12.9860 C.ar    1  UNL1        0.1644
      2 N          63.1776   89.8319   11.6793 N.ar    1  UNL1       -0.2335
      3 C          62.7300   88.4554   11.2859 C.ar    1  UNL1        0.0939
      4 C          61.9689   87.9492   10.0966 C.ar    1  UNL1        0.0236
      5 C          61.6602   86.4866    9.9708 C.ar    1  UNL1        0.0749
      6 C          62.1126   85.5304   11.0342 C.ar    1  UNL1        0.0520
      7 C          61.8039   84.0679   10.9084 C.3     1  UNL1        0.0374
      8 C          62.8737   86.0366   12.2235 C.ar    1  UNL1        0.2931
      9 C          63.1824   87.4991   12.3493 C.ar    1  UNL1        0.1175
     10 S          63.9096   88.2847   13.4001 S.2     1  UNL1       -0.0559
     11 N          66.2480   94.3779   11.5262 N.3     1  UNL1       -0.2676
     12 C          65.6303   93.2413   10.7669 C.3     1  UNL1        0.0940
     13 C          65.0558   92.0696   11.5067 C.3     1  UNL1        0.1111
     14 N          65.0989   92.0347   13.0056 N.am    1  UNL1       -0.2716
     15 C          64.5243   90.8630   13.7453 C.2     1  UNL1        0.2731
     16 O          64.5674   90.8280   15.2442 O.2     1  UNL1       -0.2677
     17 C          65.7166   93.1714   13.7649 C.3     1  UNL1        0.1111
     18 C          66.2911   94.3429   13.0251 C.3     1  UNL1        0.0940
     19 C          66.8226   95.5496   10.7865 C.3     1  UNL1        0.1046
     20 C          67.5690   95.3337    9.5035 C.3     1  UNL1        0.1595
     21 C          68.4019   92.9510    8.8878 C.3     1  UNL1        0.1742
     22 O          68.6723   94.3195    9.4391 O.3     1  UNL1       -0.3496
     23 C          60.8990   85.9803    8.7814 C.3     1  UNL1        0.4185
     24 F          60.1379   85.4741    7.5922 F       1  UNL1       -0.1659
     25 F          59.6273   86.5204    9.3654 F       1  UNL1       -0.1659
     26 F          62.1707   85.4403    8.1975 F       1  UNL1       -0.1659
     27 N          63.3261   85.0804   13.2869 N.pl3   1  UNL1        0.0811
     28 O          62.4970   84.8848   14.5216 O.2     1  UNL1        0.0415
     29 O          64.6076   84.3197   13.1157 O.co2   1  UNL1       -0.5760
@<TRIPOS>UNITY_ATOM_ATTR
27 1
charge 1
29 1
charge -1
@<TRIPOS>BOND
     1    21    22    1
     2    22    20    1
     3    20    19    1
     4    19    11    1
     5    11    12    1
     6    12    13    1
     7    13    14    1
     8    14    15   am
     9    15    16    2
    10    15     1    1
    11     1     2   ar
    12     2     3   ar
    13     3     4   ar
    14     4     5   ar
    15     5    23    1
    16    23    24    1
    17    23    25    1
    18    23    26    1
    19     5     6   ar
    20     6     7    1
    21     6     8   ar
    22     8    27    1
    23    27    28    2
    24    27    29    1
    25     8     9   ar
    26     9    10   ar
    27    14    17    1
    28    17    18    1
    29    18    11    1
    30    10     1   ar
    31     9     3   ar
@<TRIPOS>MOLECULE
*****
 29 31 0 0 0
SMALL
GASTEIGER

@<TRIPOS>ATOM
      1 C          62.1041   90.2532   12.0959 C.ar    1  UNL1        0.1644
      2 N          62.5794   90.0412   13.5027 N.ar    1  UNL1       -0.2335
      3 C          63.8756   90.7774   13.6698 C.ar    1  UNL1        0.0939
      4 C          64.8013   90.9266   14.8406 C.ar    1  UNL1        0.0236
      5 C          66.0528   91.7429   14.7078 C.ar    1  UNL1        0.0749
      6 C          66.3785   92.4098   13.4044 C.ar    1  UNL1        0.0520
      7 C          67.6300   93.2261   13.2716 C.3     1  UNL1        0.0374
      8 C          65.4527   92.2606   12.2336 C.ar    1  UNL1        0.2931
      9 C          64.2013   91.4444   12.3663 C.ar    1  UNL1        0.1175
     10 S          63.1064   91.1204   11.3936 S.2     1  UNL1       -0.0559
     11 N          61.0779   86.3680    8.4761 N.3     1  UNL1       -0.2676
     12 C          62.3349   86.9254    9.0754 C.3     1  UNL1        0.0940
     13 C          62.2579   88.0347   10.0823 C.3     1  UNL1        0.1111
     14 N          60.9239   88.5865   10.4898 N.am    1  UNL1       -0.2716
     15 C          60.8470   89.6958   11.4966 C.2     1  UNL1        0.2731
     16 O          59.5131   90.2476   11.9040 O.2     1  UNL1       -0.2677
     17 C          59.6669   88.0291    9.8904 C.3     1  UNL1        0.1111
     18 C          59.7439   86.9198    8.8836 C.3     1  UNL1        0.0940
     19 C          61.1548   85.2588    7.4693 C.3     1  UNL1        0.1046
     20 C          62.4903   84.7339    7.0323 C.3     1  UNL1        0.1595
     21 C          61.5943   84.0355    4.6957 C.3     1  UNL1        0.1742
     22 O          62.7375   84.4241    5.5856 O.3     1  UNL1       -0.3496
     23 C          66.9786   91.8921   15.8786 C.3     1  UNL1        0.4185
     24 F          67.9044   92.0414   17.0494 F       1  UNL1       -0.1659
     25 F          66.0400   92.8872   16.4940 F       1  UNL1       -0.1659
     26 F          67.9172   90.8970   15.2632 F       1  UNL1       -0.1659
     27 N          65.7784   92.9276   10.9302 N.pl3   1  UNL1        0.0811
     28 O          65.1503   94.2451   10.5843 O.2     1  UNL1        0.0415
     29 O          66.7323   92.2770    9.9725 O.co2   1  UNL1       -0.5760
@<TRIPOS>UNITY_ATOM_ATTR
27 1
charge 1
29 1
charge -1
@<TRIPOS>BOND
     1    21    22    1
     2    22    20    1
     3    20    19    1
     4    19    11    1
     5    11    12    1
     6    12    13    1
     7    13    14    1
     8    14    15   am
     9    15    16    2
    10    15     1    1
    11     1     2   ar
    12     2     3   ar
    13     3     4   ar
    14     4     5   ar
    15     5    23    1
    16    23    24    1
    17    23    25    1
    18    23    26    1
    19     5     6   ar
    20     6     7    1
    21     6     8   ar
    22     8    27    1
    23    27    28    2
    24    27    29    1
    25     8     9   ar
    26     9    10   ar
    27    14    17    1
    28    17    18    1
    29    18    11    1
    30    10     1   ar
    31     9     3   ar
@<TRIPOS>MOLECULE
*****
 29 31 0 0 0
SMALL
GASTEIGER

@<TRIPOS>ATOM
      1 C          63.0649   90.1406   10.9635 C.ar    1  UNL1        0.1644
      2 N          63.4688   91.2476   10.0354 N.ar    1  UNL1       -0.2335
      3 C          64.3633   92.1839   10.7925 C.ar    1  UNL1        0.0939
      4 C          65.0615   93.4494   10.3910 C.ar    1  UNL1        0.0236
      5 C          65.9086   94.1865   11.3857 C.ar    1  UNL1        0.0749
      6 C          66.0574   93.6582   12.7815 C.ar    1  UNL1        0.0520
      7 C          66.9045   94.3954   13.7762 C.3     1  UNL1        0.0374
      8 C          65.3592   92.3928   13.1830 C.ar    1  UNL1        0.2931
      9 C          64.5122   91.6556   12.1885 C.ar    1  UNL1        0.1175
     10 S          63.7097   90.3927   12.2942 S.2     1  UNL1       -0.0559
     11 N          62.6462   85.0621   12.7756 N.3     1  UNL1       -0.2676
     12 C          63.5384   86.2183   13.1180 C.3     1  UNL1        0.0940
     13 C          63.3805   87.5257   12.3998 C.3     1  UNL1        0.1111
     14 N          62.3305   87.6769   11.3393 N.am    1  UNL1       -0.2716
     15 C          62.1727   88.9844   10.6211 C.2     1  UNL1        0.2731
     16 O          61.1228   89.1356    9.5606 O.2     1  UNL1       -0.2677
     17 C          61.4384   86.5206   10.9969 C.3     1  UNL1        0.1111
     18 C          61.5963   85.2133   11.7151 C.3     1  UNL1        0.0940
     19 C          62.8040   83.7546   13.4937 C.3     1  UNL1        0.1046
     20 C          62.3432   83.6191   14.9147 C.3     1  UNL1        0.1595
     21 C          62.6722   85.5015   16.6750 C.3     1  UNL1        0.1742
     22 O          61.8177   84.8161   15.6502 O.3     1  UNL1       -0.3496
     23 C          66.6068   95.4520   10.9842 C.3     1  UNL1        0.4185
     24 F          67.3050   96.7175   10.5827 F       1  UNL1       -0.1659
     25 F          67.6306   94.6500   10.2368 F       1  UNL1       -0.1659
     26 F          65.5830   96.2539   11.7317 F       1  UNL1       -0.1659
     27 N          65.5081   91.8645   14.5790 N.pl3   1  UNL1        0.0811
     28 O          66.7930   91.2168   15.0027 O.2     1  UNL1        0.0415
     29 O          64.3721   91.9839   15.5513 O.co2   1  UNL1       -0.5760
@<TRIPOS>UNITY_ATOM_ATTR
27 1
charge 1
29 1
charge -1
@<TRIPOS>BOND
     1    21    22    1
     2    22    20    1
     3    20    19    1
     4    19    11    1
     5    11    12    1
     6    12    13    1
     7    13    14    1
     8    14    15   am
     9    15    16    2
    10    15     1    1
    11     1     2   ar
    12     2     3   ar
    13     3     4   ar
    14     4     5   ar
    15     5    23    1
    16    23    24    1
    17    23    25    1
    18    23    26    1
    19     5     6   ar
    20     6     7    1
    21     6     8   ar
    22     8    27    1
    23    27    28    2
    24    27    29    1
    25     8     9   ar
    26     9    10   ar
    27    14    17    1
    28    17    18    1
    29    18    11    1
    30    10     1   ar
    31     9     3   ar
@<TRIPOS>MOLECULE
*****
 29 31 0 0 0
SMALL
GASTEIGER

@<TRIPOS>ATOM
      1 C          63.0465   90.0394   10.9942 C.ar    1  UNL1        0.1644
      2 N          63.4576   91.1329   10.0533 N.ar    1  UNL1       -0.2335
      3 C          64.3429   92.0824   10.8048 C.ar    1  UNL1        0.0939
      4 C          65.0426   93.3430   10.3909 C.ar    1  UNL1        0.0236
      5 C          65.8785   94.0969   11.3825 C.ar    1  UNL1        0.0749
      6 C          66.0146   93.5902   12.7877 C.ar    1  UNL1        0.0520
      7 C          66.8504   94.3441   13.7792 C.3     1  UNL1        0.0374
      8 C          65.3148   92.3297   13.2015 C.ar    1  UNL1        0.2931
      9 C          64.4789   91.5758   12.2100 C.ar    1  UNL1        0.1175
     10 S          63.6777   90.3131   12.3271 S.2     1  UNL1       -0.0559
     11 N          62.6685   84.9655   12.8279 N.3     1  UNL1       -0.2676
     12 C          63.5551   86.1286   13.1614 C.3     1  UNL1        0.0940
     13 C          63.3855   87.4322   12.4389 C.3     1  UNL1        0.1111
     14 N          62.3294   87.5727   11.3831 N.am    1  UNL1       -0.2716
     15 C          62.1599   88.8763   10.6607 C.2     1  UNL1        0.2731
     16 O          61.1038   89.0169    9.6048 O.2     1  UNL1       -0.2677
     17 C          61.4428   86.4096   11.0496 C.3     1  UNL1        0.1111
     18 C          61.6124   85.1060   11.7721 C.3     1  UNL1        0.0940
     19 C          62.8379   83.6619   13.5503 C.3     1  UNL1        0.1046
     20 C          63.5289   82.5145   12.8749 C.3     1  UNL1        0.1595
     21 C          64.1202   82.6624   10.3494 C.3     1  UNL1        0.1742
     22 O          64.5290   82.7760   11.7881 O.3     1  UNL1       -0.3496
     23 C          66.5784   95.3575   10.9686 C.3     1  UNL1        0.4185
     24 F          67.2782   96.6181   10.5548 F       1  UNL1       -0.1659
     25 F          65.5436   96.1689   11.6904 F       1  UNL1       -0.1659
     26 F          67.6131   94.5461   10.2469 F       1  UNL1       -0.1659
     27 N          65.4508   91.8230   14.6068 N.pl3   1  UNL1        0.0811
     28 O          64.3027   91.9487   15.5638 O.2     1  UNL1        0.0415
     29 O          66.7352   91.1907   15.0550 O.co2   1  UNL1       -0.5760
@<TRIPOS>UNITY_ATOM_ATTR
27 1
charge 1
29 1
charge -1
@<TRIPOS>BOND
     1    21    22    1
     2    22    20    1
     3    20    19    1
     4    19    11    1
     5    11    12    1
     6    12    13    1
     7    13    14    1
     8    14    15   am
     9    15    16    2
    10    15     1    1
    11     1     2   ar
    12     2     3   ar
    13     3     4   ar
    14     4     5   ar
    15     5    23    1
    16    23    24    1
    17    23    25    1
    18    23    26    1
    19     5     6   ar
    20     6     7    1
    21     6     8   ar
    22     8    27    1
    23    27    28    2
    24    27    29    1
    25     8     9   ar
    26     9    10   ar
    27    14    17    1
    28    17    18    1
    29    18    11    1
    30    10     1   ar
    31     9     3   ar
@<TRIPOS>MOLECULE
*****
 29 31 0 0 0
SMALL
GASTEIGER

@<TRIPOS>ATOM
      1 C          62.3360   89.3750   12.9600 C.ar    1  UNL1        0.1644
      2 N          61.4567   90.1722   12.0429 N.ar    1  UNL1       -0.2335
      3 C          61.1486   89.3251   10.8439 C.ar    1  UNL1        0.0939
      4 C          60.3296   89.5858    9.6145 C.ar    1  UNL1        0.0236
      5 C          60.1997   88.5257    8.5613 C.ar    1  UNL1        0.0749
      6 C          60.8886   87.2050    8.7374 C.ar    1  UNL1        0.0520
      7 C          60.7587   86.1449    7.6841 C.3     1  UNL1        0.0374
      8 C          61.7075   86.9443    9.9668 C.ar    1  UNL1        0.2931
      9 C          61.8375   88.0044   11.0200 C.ar    1  UNL1        0.1175
     10 S          62.5714   88.0352   12.3279 S.2     1  UNL1       -0.0559
     11 N          66.1096   92.9719   14.3998 N.3     1  UNL1       -0.2676
     12 C          65.5617   92.5104   13.0819 C.3     1  UNL1        0.0940
     13 C          64.4864   91.4652   13.0413 C.3     1  UNL1        0.1111
     14 N          63.9591   90.8817   14.3186 N.am    1  UNL1       -0.2716
     15 C          62.8839   89.8365   14.2779 C.2     1  UNL1        0.2731
     16 O          62.3566   89.2530   15.5551 O.2     1  UNL1       -0.2677
     17 C          64.5070   91.3432   15.6364 C.3     1  UNL1        0.1111
     18 C          65.5822   92.3883   15.6770 C.3     1  UNL1        0.0940
     19 C          67.1848   94.0170   14.4405 C.3     1  UNL1        0.1046
     20 C          68.3549   93.8537   15.3647 C.3     1  UNL1        0.1595
     21 C          69.4994   91.9885   13.9643 C.3     1  UNL1        0.1742
     22 O          69.2002   92.6167   15.2931 O.3     1  UNL1       -0.3496
     23 C          59.3807   88.7863    7.3318 C.3     1  UNL1        0.4185
     24 F          58.5618   89.0470    6.1024 F       1  UNL1       -0.1659
     25 F          58.4145   87.7175    7.7488 F       1  UNL1       -0.1659
     26 F          60.3470   89.8552    6.9149 F       1  UNL1       -0.1659
     27 N          62.3965   85.6236   10.1429 N.pl3   1  UNL1        0.0811
     28 O          62.1348   84.7987   11.3681 O.2     1  UNL1        0.0415
     29 O          63.3471   85.1277    9.0938 O.co2   1  UNL1       -0.5760
@<TRIPOS>UNITY_ATOM_ATTR
27 1
charge 1
29 1
charge -1
@<TRIPOS>BOND
     1    21    22    1
     2    22    20    1
     3    20    19    1
     4    19    11    1
     5    11    12    1
     6    12    13    1
     7    13    14    1
     8    14    15   am
     9    15    16    2
    10    15     1    1
    11     1     2   ar
    12     2     3   ar
    13     3     4   ar
    14     4     5   ar
    15     5    23    1
    16    23    24    1
    17    23    25    1
    18    23    26    1
    19     5     6   ar
    20     6     7    1
    21     6     8   ar
    22     8    27    1
    23    27    28    2
    24    27    29    1
    25     8     9   ar
    26     9    10   ar
    27    14    17    1
    28    17    18    1
    29    18    11    1
    30    10     1   ar
    31     9     3   ar
@<TRIPOS>MOLECULE
*****
 29 31 0 0 0
SMALL
GASTEIGER

@<TRIPOS>ATOM
      1 C          62.6967   86.3911   11.5266 C.ar    1  UNL1        0.1644
      2 N          62.5896   85.3153   10.4868 N.ar    1  UNL1       -0.2335
      3 C          62.7202   83.9896   11.1764 C.ar    1  UNL1        0.0939
      4 C          62.6924   82.5820   10.6589 C.ar    1  UNL1        0.0236
      5 C          62.8525   81.4310   11.6074 C.ar    1  UNL1        0.0749
      6 C          63.0404   81.6875   13.0732 C.ar    1  UNL1        0.0520
      7 C          63.2004   80.5364   14.0217 C.3     1  UNL1        0.0374
      8 C          63.0682   83.0951   13.5907 C.ar    1  UNL1        0.2931
      9 C          62.9081   84.2462   12.6424 C.ar    1  UNL1        0.1175
     10 S          62.8936   85.7304   12.8588 S.2     1  UNL1       -0.0559
     11 N          64.4525   90.7424   14.2161 N.3     1  UNL1       -0.2676
     12 C          64.5289   89.2651   14.4649 C.3     1  UNL1        0.0940
     13 C          63.9181   88.3072   13.4854 C.3     1  UNL1        0.1111
     14 N          63.2311   88.8264   12.2572 N.am    1  UNL1       -0.2716
     15 C          62.6203   87.8684   11.2778 C.2     1  UNL1        0.2731
     16 O          61.9333   88.3877   10.0497 O.2     1  UNL1       -0.2677
     17 C          63.1547   90.3037   12.0086 C.3     1  UNL1        0.1111
     18 C          63.7655   91.2617   12.9880 C.3     1  UNL1        0.0940
     19 C          65.0632   91.7004   15.1955 C.3     1  UNL1        0.1046
     20 C          66.2927   92.4738   14.8210 C.3     1  UNL1        0.1595
     21 C          66.2539   93.8908   12.6437 C.3     1  UNL1        0.1742
     22 O          66.1636   93.8032   14.1384 O.3     1  UNL1       -0.3496
     23 C          62.8247   80.0233   11.0898 C.3     1  UNL1        0.4185
     24 F          62.7969   78.6157   10.5723 F       1  UNL1       -0.1659
     25 F          62.2871   79.5494   12.4076 F       1  UNL1       -0.1659
     26 F          63.3622   80.4972    9.7721 F       1  UNL1       -0.1659
     27 N          63.2561   83.3516   15.0566 N.pl3   1  UNL1        0.0811
     28 O          64.5658   83.0290   15.7127 O.2     1  UNL1        0.0415
     29 O          62.1341   83.9309   15.8665 O.co2   1  UNL1       -0.5760
@<TRIPOS>UNITY_ATOM_ATTR
27 1
charge 1
29 1
charge -1
@<TRIPOS>BOND
     1    21    22    1
     2    22    20    1
     3    20    19    1
     4    19    11    1
     5    11    12    1
     6    12    13    1
     7    13    14    1
     8    14    15   am
     9    15    16    2
    10    15     1    1
    11     1     2   ar
    12     2     3   ar
    13     3     4   ar
    14     4     5   ar
    15     5    23    1
    16    23    24    1
    17    23    25    1
    18    23    26    1
    19     5     6   ar
    20     6     7    1
    21     6     8   ar
    22     8    27    1
    23    27    28    2
    24    27    29    1
    25     8     9   ar
    26     9    10   ar
    27    14    17    1
    28    17    18    1
    29    18    11    1
    30    10     1   ar
    31     9     3   ar
@<TRIPOS>MOLECULE
*****
 29 31 0 0 0
SMALL
GASTEIGER

@<TRIPOS>ATOM
      1 C          63.6895   88.4444   15.1100 C.ar    1  UNL1        0.1644
      2 N          63.7255   88.6711   13.6277 N.ar    1  UNL1       -0.2335
      3 C          64.3946   89.9899   13.3766 C.ar    1  UNL1        0.0939
      4 C          64.7089   90.7310   12.1110 C.ar    1  UNL1        0.0236
      5 C          65.4008   92.0606   12.1725 C.ar    1  UNL1        0.0749
      6 C          65.7783   92.6489   13.4996 C.ar    1  UNL1        0.0520
      7 C          66.4701   93.9784   13.5612 C.3     1  UNL1        0.0374
      8 C          65.4640   91.9077   14.7653 C.ar    1  UNL1        0.2931
      9 C          64.7722   90.5782   14.7038 C.ar    1  UNL1        0.1175
     10 S          64.3363   89.6230   15.7751 S.2     1  UNL1       -0.0559
     11 N          63.7153   83.1332   14.0894 N.3     1  UNL1       -0.2676
     12 C          64.2962   84.3288   13.3942 C.3     1  UNL1        0.0940
     13 C          64.0939   85.7006   13.9662 C.3     1  UNL1        0.1111
     14 N          63.3108   85.8770   15.2333 N.am    1  UNL1       -0.2716
     15 C          63.1086   87.2489   15.8052 C.2     1  UNL1        0.2731
     16 O          62.3255   87.4252   17.0723 O.2     1  UNL1       -0.2677
     17 C          62.7299   84.6814   15.9285 C.3     1  UNL1        0.1111
     18 C          62.9322   83.3096   15.3566 C.3     1  UNL1        0.0940
     19 C          63.9176   81.7614   13.5176 C.3     1  UNL1        0.1046
     20 C          62.8080   81.0932   12.7610 C.3     1  UNL1        0.1595
     21 C          60.6238   80.7231   14.1184 C.3     1  UNL1        0.1742
     22 O          61.8618   80.1733   13.4741 O.3     1  UNL1       -0.3496
     23 C          65.7151   92.8018   10.9068 C.3     1  UNL1        0.4185
     24 F          66.0294   93.5429    9.6412 F       1  UNL1       -0.1659
     25 F          67.1557   92.4029   11.0310 F       1  UNL1       -0.1659
     26 F          64.2745   93.2006   10.7827 F       1  UNL1       -0.1659
     27 N          65.8415   92.4961   16.0924 N.pl3   1  UNL1        0.0811
     28 O          64.7761   92.8401   17.0907 O.2     1  UNL1        0.0415
     29 O          67.2846   92.7404   16.4213 O.co2   1  UNL1       -0.5760
@<TRIPOS>UNITY_ATOM_ATTR
27 1
charge 1
29 1
charge -1
@<TRIPOS>BOND
     1    21    22    1
     2    22    20    1
     3    20    19    1
     4    19    11    1
     5    11    12    1
     6    12    13    1
     7    13    14    1
     8    14    15   am
     9    15    16    2
    10    15     1    1
    11     1     2   ar
    12     2     3   ar
    13     3     4   ar
    14     4     5   ar
    15     5    23    1
    16    23    24    1
    17    23    25    1
    18    23    26    1
    19     5     6   ar
    20     6     7    1
    21     6     8   ar
    22     8    27    1
    23    27    28    2
    24    27    29    1
    25     8     9   ar
    26     9    10   ar
    27    14    17    1
    28    17    18    1
    29    18    11    1
    30    10     1   ar
    31     9     3   ar
@<TRIPOS>MOLECULE
*****
 29 31 0 0 0
SMALL
GASTEIGER

@<TRIPOS>ATOM
      1 C          63.0241   89.1303   12.5667 C.ar    1  UNL1        0.1644
      2 N          62.0634   89.9388   11.7460 N.ar    1  UNL1       -0.2335
      3 C          61.5294   89.0577   10.6560 C.ar    1  UNL1        0.0939
      4 C          60.5503   89.3126    9.5485 C.ar    1  UNL1        0.0236
      5 C          60.2018   88.2144    8.5880 C.ar    1  UNL1        0.0749
      6 C          60.8323   86.8614    8.7349 C.ar    1  UNL1        0.0520
      7 C          60.4838   85.7631    7.7744 C.3     1  UNL1        0.0374
      8 C          61.8114   86.6064    9.8424 C.ar    1  UNL1        0.2931
      9 C          62.1599   87.7046   10.8029 C.ar    1  UNL1        0.1175
     10 S          63.0837   87.7495   11.9838 S.2     1  UNL1       -0.0559
     11 N          66.0644   93.4945   13.5466 N.3     1  UNL1       -0.2676
     12 C          65.2979   93.0077   12.3527 C.3     1  UNL1        0.0940
     13 C          64.5400   91.7152   12.4241 C.3     1  UNL1        0.1111
     14 N          64.5485   90.9096   13.6893 N.am    1  UNL1       -0.2716
     15 C          63.7905   89.6171   13.7607 C.2     1  UNL1        0.2731
     16 O          63.7991   88.8115   15.0259 O.2     1  UNL1       -0.2677
     17 C          65.3150   91.3965   14.8833 C.3     1  UNL1        0.1111
     18 C          66.0729   92.6889   14.8119 C.3     1  UNL1        0.0940
     19 C          66.8223   94.7869   13.4753 C.3     1  UNL1        0.1046
     20 C          66.7941   95.6045   12.2180 C.3     1  UNL1        0.1595
     21 C          65.1555   96.8555   10.6369 C.3     1  UNL1        0.1742
     22 O          65.7130   96.6233   12.0099 O.3     1  UNL1       -0.3496
     23 C          59.2227   88.4693    7.4805 C.3     1  UNL1        0.4185
     24 F          58.2437   88.7243    6.3730 F       1  UNL1       -0.1659
     25 F          60.1258   89.5312    6.9266 F       1  UNL1       -0.1659
     26 F          58.3197   87.4074    8.0344 F       1  UNL1       -0.1659
     27 N          62.4419   85.2533    9.9893 N.pl3   1  UNL1        0.0811
     28 O          63.4176   84.7648    8.9601 O.2     1  UNL1        0.0415
     29 O          62.0966   84.3887   11.1655 O.co2   1  UNL1       -0.5760
@<TRIPOS>UNITY_ATOM_ATTR
27 1
charge 1
29 1
charge -1
@<TRIPOS>BOND
     1    21    22    1
     2    22    20    1
     3    20    19    1
     4    19    11    1
     5    11    12    1
     6    12    13    1
     7    13    14    1
     8    14    15   am
     9    15    16    2
    10    15     1    1
    11     1     2   ar
    12     2     3   ar
    13     3     4   ar
    14     4     5   ar
    15     5    23    1
    16    23    24    1
    17    23    25    1
    18    23    26    1
    19     5     6   ar
    20     6     7    1
    21     6     8   ar
    22     8    27    1
    23    27    28    2
    24    27    29    1
    25     8     9   ar
    26     9    10   ar
    27    14    17    1
    28    17    18    1
    29    18    11    1
    30    10     1   ar
    31     9     3   ar
