@<TRIPOS>MOLECULE
*****
 34 38 0 0 0
SMALL
GASTEIGER

@<TRIPOS>ATOM
      1 C          63.5384   88.6501   12.8318 C.ar    1  UNL1        0.1389
      2 C          62.8007   87.9625   11.7214 C.ar    1  UNL1        0.0397
      3 C          61.7975   88.7216   10.9046 C.ar    1  UNL1        0.0353
      4 C          61.5319   90.1684   11.1981 C.ar    1  UNL1        0.0779
      5 C          62.2695   90.8560   12.3085 C.ar    1  UNL1        0.0219
      6 C          63.2727   90.0969   13.1254 C.ar    1  UNL1        0.0394
      7 N          60.5286   90.9275   10.3813 N.2     1  UNL1       -0.2641
      8 C          59.7910   90.2399    9.2709 C.3     1  UNL1        0.1696
      9 C          60.0566   88.7930    8.9773 C.2     1  UNL1        0.0912
     10 N          59.4874   87.8555    7.9540 N.am    1  UNL1       -0.1627
     11 C          60.1389   86.5171    8.1384 C.2     1  UNL1        0.3350
     12 O          59.8663   85.2848    7.3278 O.2     1  UNL1       -0.2497
     13 N          61.1107   86.6273    9.2756 N.am    1  UNL1       -0.2163
     14 C          61.0598   88.0339    9.7941 C.2     1  UNL1        0.0744
     15 C          64.0104   90.7846   14.2358 C.ar    1  UNL1        0.0526
     16 C          65.0656   91.8382   14.0734 C.ar    1  UNL1        0.1007
     17 C          65.5685   92.3891   12.7720 C.3     1  UNL1        0.0557
     18 N          65.5297   92.2442   15.4408 N.ar    1  UNL1       -0.0817
     19 O          64.7612   91.4415   16.4484 O.2     1  UNL1       -0.3581
     20 C          63.8222   90.5394   15.7036 C.ar    1  UNL1        0.1545
     21 C          62.8635   89.5635   16.3187 C.3     1  UNL1        0.0754
     22 C          61.9806   85.5245    9.8020 C.ar    1  UNL1        0.0938
     23 C          61.8562   85.0886   11.2319 C.ar    1  UNL1        0.0184
     24 C          62.7261   83.9859   11.7582 C.ar    1  UNL1        0.0015
     25 C          63.7205   83.3189   10.8547 C.ar    1  UNL1        0.0032
     26 C          63.8450   83.7548    9.4249 C.ar    1  UNL1        0.0385
     27 C          62.9750   84.8575    8.8985 C.ar    1  UNL1        0.1607
     28 O          63.0995   85.2934    7.4686 O.3     1  UNL1       -0.4032
     29 C          62.5151   84.4506    6.3740 C.3     1  UNL1        0.5753
     30 F          61.9308   83.6078    5.2794 F       1  UNL1       -0.1328
     31 F          63.3310   85.1990    5.3621 F       1  UNL1       -0.1328
     32 F          61.6991   83.7020    7.3859 F       1  UNL1       -0.1328
     33 C          64.1403   86.6209   14.3384 C.3     1  UNL1        0.2525
     34 O          64.5416   87.8910   13.6486 O.3     1  UNL1       -0.4714
@<TRIPOS>BOND
     1    33    34    1
     2    34     1    1
     3     1     2   ar
     4     2     3   ar
     5     3     4   ar
     6     4     5   ar
     7     5     6   ar
     8     6    15    1
     9    15    16   ar
    10    16    17    1
    11    16    18   ar
    12    18    19   ar
    13    19    20   ar
    14    20    21    1
    15     4     7    2
    16     7     8    1
    17     8     9    1
    18     9    10    2
    19    10    11    1
    20    11    12    2
    21    11    13   am
    22    13    22    1
    23    22    23   ar
    24    23    24   ar
    25    24    25   ar
    26    25    26   ar
    27    26    27   ar
    28    27    28    1
    29    28    29    1
    30    29    30    1
    31    29    31    1
    32    29    32    1
    33    13    14    1
    34     6     1   ar
    35    20    15   ar
    36    14     9    1
    37    14     3    2
    38    27    22   ar
@<TRIPOS>MOLECULE
*****
 34 38 0 0 0
SMALL
GASTEIGER

@<TRIPOS>ATOM
      1 C          63.6265   85.8452   13.3482 C.ar    1  UNL1        0.1389
      2 C          63.4340   87.1996   12.7330 C.ar    1  UNL1        0.0397
      3 C          62.5995   87.3496   11.4956 C.ar    1  UNL1        0.0353
      4 C          61.9575   86.1452   10.8734 C.ar    1  UNL1        0.0779
      5 C          62.1501   84.7908   11.4885 C.ar    1  UNL1        0.0219
      6 C          62.9846   84.6408   12.7259 C.ar    1  UNL1        0.0394
      7 N          61.1231   86.2951    9.6360 N.2     1  UNL1       -0.2641
      8 C          60.9305   87.6495    9.0208 C.3     1  UNL1        0.1696
      9 C          61.5725   88.8541    9.6430 C.2     1  UNL1        0.0912
     10 N          61.5614   90.3055    9.2646 N.am    1  UNL1       -0.1627
     11 C          62.3889   91.0525   10.2680 C.2     1  UNL1        0.3350
     12 O          62.6484   92.5299   10.2721 O.2     1  UNL1       -0.2497
     13 N          62.9116   90.0628   11.2667 N.am    1  UNL1       -0.2163
     14 C          62.4069   88.7041   10.8804 C.2     1  UNL1        0.0744
     15 C          63.1771   83.2863   13.3411 C.ar    1  UNL1        0.0526
     16 C          63.8718   82.1194   12.7042 C.ar    1  UNL1        0.1007
     17 C          64.4959   82.1019   11.3403 C.3     1  UNL1        0.0557
     18 N          63.8328   80.9729   13.6706 N.ar    1  UNL1       -0.0817
     19 O          63.1140   81.4312   14.9049 O.2     1  UNL1       -0.3581
     20 C          62.7088   82.8610   14.7012 C.ar    1  UNL1        0.1545
     21 C          61.9657   83.7155   15.6849 C.3     1  UNL1        0.0754
     22 C          63.7854   90.3767   12.4448 C.ar    1  UNL1        0.0938
     23 C          63.4674   89.7953   13.7904 C.ar    1  UNL1        0.0184
     24 C          64.3413   90.1092   14.9685 C.ar    1  UNL1        0.0015
     25 C          65.5330   91.0045   14.8010 C.ar    1  UNL1        0.0032
     26 C          65.8510   91.5859   13.4553 C.ar    1  UNL1        0.0385
     27 C          64.9771   91.2720   12.2772 C.ar    1  UNL1        0.1607
     28 O          65.2951   91.8535   10.9315 O.3     1  UNL1       -0.4032
     29 C          66.3050   92.9558   10.8104 C.3     1  UNL1        0.5753
     30 F          67.3149   94.0583   10.6893 F       1  UNL1       -0.1328
     31 F          65.2493   93.9617   11.1621 F       1  UNL1       -0.1328
     32 F          67.3608   91.9501   10.4587 F       1  UNL1       -0.1328
     33 C          64.0865   86.4330   15.8367 C.3     1  UNL1        0.2525
     34 O          64.4610   85.6953   14.5856 O.3     1  UNL1       -0.4714
@<TRIPOS>BOND
     1    33    34    1
     2    34     1    1
     3     1     2   ar
     4     2     3   ar
     5     3     4   ar
     6     4     5   ar
     7     5     6   ar
     8     6    15    1
     9    15    16   ar
    10    16    17    1
    11    16    18   ar
    12    18    19   ar
    13    19    20   ar
    14    20    21    1
    15     4     7    2
    16     7     8    1
    17     8     9    1
    18     9    10    2
    19    10    11    1
    20    11    12    2
    21    11    13   am
    22    13    22    1
    23    22    23   ar
    24    23    24   ar
    25    24    25   ar
    26    25    26   ar
    27    26    27   ar
    28    27    28    1
    29    28    29    1
    30    29    30    1
    31    29    31    1
    32    29    32    1
    33    13    14    1
    34     6     1   ar
    35    20    15   ar
    36    14     9    1
    37    14     3    2
    38    27    22   ar
@<TRIPOS>MOLECULE
*****
 34 38 0 0 0
SMALL
GASTEIGER

@<TRIPOS>ATOM
      1 C          63.4785   90.3141   11.5219 C.ar    1  UNL1        0.1389
      2 C          64.5941   91.0306   12.2233 C.ar    1  UNL1        0.0397
      3 C          64.5488   91.2147   13.7113 C.ar    1  UNL1        0.0353
      4 C          63.3878   90.6824   14.4978 C.ar    1  UNL1        0.0779
      5 C          62.2722   89.9659   13.7964 C.ar    1  UNL1        0.0219
      6 C          62.3175   89.7818   12.3084 C.ar    1  UNL1        0.0394
      7 N          63.3424   90.8665   15.9858 N.2     1  UNL1       -0.2641
      8 C          64.4580   91.5830   16.6872 C.3     1  UNL1        0.1696
      9 C          65.6191   92.1154   15.9007 C.2     1  UNL1        0.0912
     10 N          66.8552   92.8580   16.3137 N.am    1  UNL1       -0.1627
     11 C          67.6644   93.1328   15.0811 C.2     1  UNL1        0.3350
     12 O          68.9789   93.8537   15.0319 O.2     1  UNL1       -0.2497
     13 N          66.9286   92.5600   13.9062 N.am    1  UNL1       -0.2163
     14 C          65.6645   91.9312   14.4127 C.2     1  UNL1        0.0744
     15 C          61.2018   89.0653   11.6070 C.ar    1  UNL1        0.0526
     16 C          61.2293   87.6434   11.1302 C.ar    1  UNL1        0.1007
     17 C          62.3773   86.6882   11.2711 C.3     1  UNL1        0.0557
     18 N          59.9073   87.3443   10.4878 N.ar    1  UNL1       -0.0817
     19 O          59.0627   88.5814   10.5675 O.2     1  UNL1       -0.3581
     20 C          59.8628   89.6450   11.2593 C.ar    1  UNL1        0.1545
     21 C          59.4043   91.0429   11.5518 C.3     1  UNL1        0.0754
     22 C          67.3779   92.6077   12.4759 C.ar    1  UNL1        0.0938
     23 C          68.3244   91.5685   11.9520 C.ar    1  UNL1        0.0184
     24 C          68.7737   91.6162   10.5217 C.ar    1  UNL1        0.0015
     25 C          68.2766   92.7030    9.6152 C.ar    1  UNL1        0.0032
     26 C          67.3301   93.7421   10.1390 C.ar    1  UNL1        0.0385
     27 C          66.8808   93.6945   11.5694 C.ar    1  UNL1        0.1607
     28 O          65.9344   94.7336   12.0932 O.3     1  UNL1       -0.4032
     29 C          65.4018   95.7939   11.1756 C.3     1  UNL1        0.5753
     30 F          64.8692   96.8541   10.2578 F       1  UNL1       -0.1328
     31 F          64.7697   94.7361   10.3203 F       1  UNL1       -0.1328
     32 F          66.0339   96.8517   12.0308 F       1  UNL1       -0.1328
     33 C          62.5125   90.8136    9.1624 C.3     1  UNL1        0.2525
     34 O          63.5239   90.1300   10.0339 O.3     1  UNL1       -0.4714
@<TRIPOS>BOND
     1    33    34    1
     2    34     1    1
     3     1     2   ar
     4     2     3   ar
     5     3     4   ar
     6     4     5   ar
     7     5     6   ar
     8     6    15    1
     9    15    16   ar
    10    16    17    1
    11    16    18   ar
    12    18    19   ar
    13    19    20   ar
    14    20    21    1
    15     4     7    2
    16     7     8    1
    17     8     9    1
    18     9    10    2
    19    10    11    1
    20    11    12    2
    21    11    13   am
    22    13    22    1
    23    22    23   ar
    24    23    24   ar
    25    24    25   ar
    26    25    26   ar
    27    26    27   ar
    28    27    28    1
    29    28    29    1
    30    29    30    1
    31    29    31    1
    32    29    32    1
    33    13    14    1
    34     6     1   ar
    35    20    15   ar
    36    14     9    1
    37    14     3    2
    38    27    22   ar
@<TRIPOS>MOLECULE
*****
 34 38 0 0 0
SMALL
GASTEIGER

@<TRIPOS>ATOM
      1 C          63.8600   89.3588   12.8489 C.ar    1  UNL1        0.1389
      2 C          63.4337   87.9411   12.6074 C.ar    1  UNL1        0.0397
      3 C          63.7242   86.8855   13.6327 C.ar    1  UNL1        0.0353
      4 C          64.4411   87.2475   14.8995 C.ar    1  UNL1        0.0779
      5 C          64.8674   88.6652   15.1411 C.ar    1  UNL1        0.0219
      6 C          64.5769   89.7208   14.1158 C.ar    1  UNL1        0.0394
      7 N          64.7316   86.1919   15.9248 N.2     1  UNL1       -0.2641
      8 C          64.3053   84.7743   15.6833 C.3     1  UNL1        0.1696
      9 C          63.5883   84.4121   14.4164 C.2     1  UNL1        0.0912
     10 N          63.0504   83.1087   13.9049 N.am    1  UNL1       -0.1627
     11 C          62.4274   83.3587   12.5636 C.2     1  UNL1        0.3350
     12 O          61.7673   82.3312   11.6927 O.2     1  UNL1       -0.2497
     13 N          62.5803   84.8167   12.2460 N.am    1  UNL1       -0.2163
     14 C          63.2978   85.4678   13.3911 C.2     1  UNL1        0.0744
     15 C          65.0033   91.1386   14.3574 C.ar    1  UNL1        0.0526
     16 C          65.8053   91.9902   13.4185 C.ar    1  UNL1        0.1007
     17 C          66.3217   91.5738   12.0732 C.3     1  UNL1        0.0557
     18 N          66.0002   93.3315   14.0611 N.ar    1  UNL1       -0.0817
     19 O          65.3186   93.3088   15.3972 O.2     1  UNL1       -0.3581
     20 C          64.7026   91.9535   15.5803 C.ar    1  UNL1        0.1545
     21 C          63.9226   91.4938   16.7763 C.3     1  UNL1        0.0754
     22 C          62.1000   85.5031   11.0017 C.ar    1  UNL1        0.0938
     23 C          60.8405   86.3172   11.0328 C.ar    1  UNL1        0.0184
     24 C          60.3603   87.0036    9.7886 C.ar    1  UNL1        0.0015
     25 C          61.1395   86.8760    8.5132 C.ar    1  UNL1        0.0032
     26 C          62.3990   86.0620    8.4822 C.ar    1  UNL1        0.0385
     27 C          62.8793   85.3755    9.7264 C.ar    1  UNL1        0.1607
     28 O          64.1387   84.5615    9.6953 O.3     1  UNL1       -0.4032
     29 C          64.0747   83.0735    9.8739 C.3     1  UNL1        0.5753
     30 F          64.0106   81.5856   10.0524 F       1  UNL1       -0.1328
     31 F          62.9907   82.9961    8.8401 F       1  UNL1       -0.1328
     32 F          65.1588   83.1509   10.9077 F       1  UNL1       -0.1328
     33 C          62.6764   90.1034   10.6593 C.3     1  UNL1        0.2525
     34 O          63.5695   90.4144   11.8236 O.3     1  UNL1       -0.4714
@<TRIPOS>BOND
     1    33    34    1
     2    34     1    1
     3     1     2   ar
     4     2     3   ar
     5     3     4   ar
     6     4     5   ar
     7     5     6   ar
     8     6    15    1
     9    15    16   ar
    10    16    17    1
    11    16    18   ar
    12    18    19   ar
    13    19    20   ar
    14    20    21    1
    15     4     7    2
    16     7     8    1
    17     8     9    1
    18     9    10    2
    19    10    11    1
    20    11    12    2
    21    11    13   am
    22    13    22    1
    23    22    23   ar
    24    23    24   ar
    25    24    25   ar
    26    25    26   ar
    27    26    27   ar
    28    27    28    1
    29    28    29    1
    30    29    30    1
    31    29    31    1
    32    29    32    1
    33    13    14    1
    34     6     1   ar
    35    20    15   ar
    36    14     9    1
    37    14     3    2
    38    27    22   ar
@<TRIPOS>MOLECULE
*****
 34 38 0 0 0
SMALL
GASTEIGER

@<TRIPOS>ATOM
      1 C          45.2803   73.8210   16.8023 C.ar    1  UNL1        0.1389
      2 C          44.9926   74.8716   17.8335 C.ar    1  UNL1        0.0397
      3 C          44.5675   74.4701   19.2148 C.ar    1  UNL1        0.0353
      4 C          44.4300   73.0181   19.5649 C.ar    1  UNL1        0.0779
      5 C          44.7177   71.9675   18.5337 C.ar    1  UNL1        0.0219
      6 C          45.1429   72.3690   17.1524 C.ar    1  UNL1        0.0394
      7 N          44.0048   72.6166   20.9462 N.2     1  UNL1       -0.2641
      8 C          43.7171   73.6672   21.9774 C.3     1  UNL1        0.1696
      9 C          43.8546   75.1193   21.6274 C.2     1  UNL1        0.0912
     10 N          43.6407   76.3695   22.4282 N.am    1  UNL1       -0.1627
     11 C          43.9336   77.5435   21.5418 C.2     1  UNL1        0.3350
     12 O          43.8468   78.9885   21.9351 O.2     1  UNL1       -0.2497
     13 N          44.3286   77.0191   20.1932 N.am    1  UNL1       -0.2163
     14 C          44.2797   75.5208   20.2460 C.2     1  UNL1        0.0744
     15 C          45.4306   71.3183   16.1211 C.ar    1  UNL1        0.0526
     16 C          44.7395   71.1686   14.7983 C.ar    1  UNL1        0.1007
     17 C          43.6393   72.0432   14.2744 C.3     1  UNL1        0.0557
     18 N          45.3417   69.9907   14.0913 N.ar    1  UNL1       -0.0817
     19 O          46.4051   69.4124   14.9773 O.2     1  UNL1       -0.3581
     20 C          46.4600   70.2329   16.2317 C.ar    1  UNL1        0.1545
     21 C          47.3824   70.0076   17.3929 C.3     1  UNL1        0.0754
     22 C          44.7061   77.8474   19.0010 C.ar    1  UNL1        0.0938
     23 C          43.6499   78.2983   18.0361 C.ar    1  UNL1        0.0184
     24 C          44.0274   79.1266   16.8439 C.ar    1  UNL1        0.0015
     25 C          45.4612   79.5040   16.6166 C.ar    1  UNL1        0.0032
     26 C          46.5175   79.0531   17.5815 C.ar    1  UNL1        0.0385
     27 C          46.1399   78.2248   18.7737 C.ar    1  UNL1        0.1607
     28 O          47.1962   77.7740   19.7386 O.3     1  UNL1       -0.4032
     29 C          47.6869   76.3570   19.7052 C.3     1  UNL1        0.5753
     30 F          48.1777   74.9399   19.6718 F       1  UNL1       -0.1328
     31 F          48.0412   76.5138   18.2561 F       1  UNL1       -0.1328
     32 F          47.3327   76.2001   21.1543 F       1  UNL1       -0.1328
     33 C          44.8438   75.1434   14.6089 C.3     1  UNL1        0.2525
     34 O          45.7055   74.2225   15.4209 O.3     1  UNL1       -0.4714
@<TRIPOS>BOND
     1    33    34    1
     2    34     1    1
     3     1     2   ar
     4     2     3   ar
     5     3     4   ar
     6     4     5   ar
     7     5     6   ar
     8     6    15    1
     9    15    16   ar
    10    16    17    1
    11    16    18   ar
    12    18    19   ar
    13    19    20   ar
    14    20    21    1
    15     4     7    2
    16     7     8    1
    17     8     9    1
    18     9    10    2
    19    10    11    1
    20    11    12    2
    21    11    13   am
    22    13    22    1
    23    22    23   ar
    24    23    24   ar
    25    24    25   ar
    26    25    26   ar
    27    26    27   ar
    28    27    28    1
    29    28    29    1
    30    29    30    1
    31    29    31    1
    32    29    32    1
    33    13    14    1
    34     6     1   ar
    35    20    15   ar
    36    14     9    1
    37    14     3    2
    38    27    22   ar
@<TRIPOS>MOLECULE
*****
 34 38 0 0 0
SMALL
GASTEIGER

@<TRIPOS>ATOM
      1 C          64.2450   87.0720   14.0059 C.ar    1  UNL1        0.1389
      2 C          64.3416   88.4287   13.3734 C.ar    1  UNL1        0.0397
      3 C          63.5003   88.7598   12.1765 C.ar    1  UNL1        0.0353
      4 C          62.5624   87.7343   11.6121 C.ar    1  UNL1        0.0779
      5 C          62.4658   86.3777   12.2446 C.ar    1  UNL1        0.0219
      6 C          63.3071   86.0465   13.4415 C.ar    1  UNL1        0.0394
      7 N          61.7211   88.0654   10.4152 N.2     1  UNL1       -0.2641
      8 C          61.8177   89.4221    9.7827 C.3     1  UNL1        0.1696
      9 C          62.7557   90.4477   10.3471 C.2     1  UNL1        0.0912
     10 N          63.0638   91.8581    9.9399 N.am    1  UNL1       -0.1627
     11 C          64.0954   92.3986   10.8850 C.2     1  UNL1        0.3350
     12 O          64.6927   93.7740   10.8457 O.2     1  UNL1       -0.2497
     13 N          64.4250   91.3223   11.8764 N.am    1  UNL1       -0.2163
     14 C          63.5970   90.1166   11.5440 C.2     1  UNL1        0.0744
     15 C          63.2104   84.6898   14.0740 C.ar    1  UNL1        0.0526
     16 C          63.6335   83.3935   13.4491 C.ar    1  UNL1        0.1007
     17 C          64.2276   83.2262   12.0819 C.3     1  UNL1        0.0557
     18 N          63.3583   82.2937   14.4314 N.ar    1  UNL1       -0.0817
     19 O          62.7651   82.9104   15.6634 O.2     1  UNL1       -0.3581
     20 C          62.6737   84.3912   15.4425 C.ar    1  UNL1        0.1545
     21 C          62.1394   85.3969   16.4188 C.3     1  UNL1        0.0754
     22 C          65.4097   91.4324   13.0026 C.ar    1  UNL1        0.0938
     23 C          66.8770   91.5354   12.7086 C.ar    1  UNL1        0.0184
     24 C          67.8617   91.6454   13.8347 C.ar    1  UNL1        0.0015
     25 C          67.3791   91.6525   15.2550 C.ar    1  UNL1        0.0032
     26 C          65.9118   91.5495   15.5490 C.ar    1  UNL1        0.0385
     27 C          64.9271   91.4395   14.4228 C.ar    1  UNL1        0.1607
     28 O          63.4599   91.3365   14.7169 O.3     1  UNL1       -0.4032
     29 C          62.9556   90.2830   15.6580 C.3     1  UNL1        0.5753
     30 F          62.4515   89.2295   16.5993 F       1  UNL1       -0.1328
     31 F          63.8296   90.8355   16.7447 F       1  UNL1       -0.1328
     32 F          62.0816   89.7304   14.5714 F       1  UNL1       -0.1328
     33 C          66.1446   85.6823   15.1060 C.3     1  UNL1        0.2525
     34 O          65.0863   86.7409   15.2028 O.3     1  UNL1       -0.4714
@<TRIPOS>BOND
     1    33    34    1
     2    34     1    1
     3     1     2   ar
     4     2     3   ar
     5     3     4   ar
     6     4     5   ar
     7     5     6   ar
     8     6    15    1
     9    15    16   ar
    10    16    17    1
    11    16    18   ar
    12    18    19   ar
    13    19    20   ar
    14    20    21    1
    15     4     7    2
    16     7     8    1
    17     8     9    1
    18     9    10    2
    19    10    11    1
    20    11    12    2
    21    11    13   am
    22    13    22    1
    23    22    23   ar
    24    23    24   ar
    25    24    25   ar
    26    25    26   ar
    27    26    27   ar
    28    27    28    1
    29    28    29    1
    30    29    30    1
    31    29    31    1
    32    29    32    1
    33    13    14    1
    34     6     1   ar
    35    20    15   ar
    36    14     9    1
    37    14     3    2
    38    27    22   ar
@<TRIPOS>MOLECULE
*****
 34 38 0 0 0
SMALL
GASTEIGER

@<TRIPOS>ATOM
      1 C          63.5832   89.5596   13.1014 C.ar    1  UNL1        0.1389
      2 C          63.1822   88.1954   12.6239 C.ar    1  UNL1        0.0397
      3 C          63.7488   86.9732   13.2837 C.ar    1  UNL1        0.0353
      4 C          64.7165   87.1153   14.4210 C.ar    1  UNL1        0.0779
      5 C          65.1175   88.4796   14.8984 C.ar    1  UNL1        0.0219
      6 C          64.5508   89.7017   14.2386 C.ar    1  UNL1        0.0394
      7 N          65.2831   85.8932   15.0808 N.2     1  UNL1       -0.2641
      8 C          64.8821   84.5290   14.6033 C.3     1  UNL1        0.1696
      9 C          63.9144   84.3868   13.4660 C.2     1  UNL1        0.0912
     10 N          63.3380   83.1820   12.7832 N.am    1  UNL1       -0.1627
     11 C          62.4151   83.6596   11.7015 C.2     1  UNL1        0.3350
     12 O          61.6249   82.7899   10.7692 O.2     1  UNL1       -0.2497
     13 N          62.4211   85.1594   11.7156 N.am    1  UNL1       -0.2163
     14 C          63.3478   85.6090   12.8062 C.2     1  UNL1        0.0744
     15 C          64.9519   91.0660   14.7162 C.ar    1  UNL1        0.0526
     16 C          64.5328   91.7072   16.0058 C.ar    1  UNL1        0.1007
     17 C          63.6392   91.0968   17.0444 C.3     1  UNL1        0.0557
     18 N          65.1644   93.0660   16.0745 N.ar    1  UNL1       -0.0817
     19 O          65.9738   93.2647   14.8273 O.2     1  UNL1       -0.3581
     20 C          65.8424   92.0285   13.9878 C.ar    1  UNL1        0.1545
     21 C          66.4883   91.7958   12.6541 C.3     1  UNL1        0.0754
     22 C          61.6380   86.0530   10.8001 C.ar    1  UNL1        0.0938
     23 C          60.7276   87.0994   11.3712 C.ar    1  UNL1        0.0184
     24 C          59.9445   87.9930   10.4556 C.ar    1  UNL1        0.0015
     25 C          60.0719   87.8402    8.9689 C.ar    1  UNL1        0.0032
     26 C          60.9823   86.7938    8.3977 C.ar    1  UNL1        0.0385
     27 C          61.7654   85.9002    9.3133 C.ar    1  UNL1        0.1607
     28 O          62.6758   84.8538    8.7422 O.3     1  UNL1       -0.4032
     29 C          62.9064   84.7875    7.2615 C.3     1  UNL1        0.5753
     30 F          63.1369   84.7210    5.7808 F       1  UNL1       -0.1328
     31 F          61.6849   83.9303    7.1097 F       1  UNL1       -0.1328
     32 F          64.1279   85.6446    7.4132 F       1  UNL1       -0.1328
     33 C          62.7807   90.7932   10.9603 C.3     1  UNL1        0.2525
     34 O          63.0166   90.7817   12.4416 O.3     1  UNL1       -0.4714
@<TRIPOS>BOND
     1    33    34    1
     2    34     1    1
     3     1     2   ar
     4     2     3   ar
     5     3     4   ar
     6     4     5   ar
     7     5     6   ar
     8     6    15    1
     9    15    16   ar
    10    16    17    1
    11    16    18   ar
    12    18    19   ar
    13    19    20   ar
    14    20    21    1
    15     4     7    2
    16     7     8    1
    17     8     9    1
    18     9    10    2
    19    10    11    1
    20    11    12    2
    21    11    13   am
    22    13    22    1
    23    22    23   ar
    24    23    24   ar
    25    24    25   ar
    26    25    26   ar
    27    26    27   ar
    28    27    28    1
    29    28    29    1
    30    29    30    1
    31    29    31    1
    32    29    32    1
    33    13    14    1
    34     6     1   ar
    35    20    15   ar
    36    14     9    1
    37    14     3    2
    38    27    22   ar
@<TRIPOS>MOLECULE
*****
 34 38 0 0 0
SMALL
GASTEIGER

@<TRIPOS>ATOM
      1 C          45.3455   75.1879   17.5100 C.ar    1  UNL1        0.1389
      2 C          45.0331   76.5386   18.0827 C.ar    1  UNL1        0.0397
      3 C          44.6099   76.6659   19.5161 C.ar    1  UNL1        0.0353
      4 C          44.4991   75.4425   20.3768 C.ar    1  UNL1        0.0779
      5 C          44.8114   74.0918   19.8041 C.ar    1  UNL1        0.0219
      6 C          45.2346   73.9645   18.3707 C.ar    1  UNL1        0.0394
      7 N          44.0759   75.5697   21.8103 N.2     1  UNL1       -0.2641
      8 C          43.7636   76.9204   22.3830 C.3     1  UNL1        0.1696
      9 C          43.8744   78.1439   21.5222 C.2     1  UNL1        0.0912
     10 N          43.6330   79.5967   21.8070 N.am    1  UNL1       -0.1627
     11 C          43.9070   80.3673   20.5496 C.2     1  UNL1        0.3350
     12 O          43.7907   81.8535   20.3833 O.2     1  UNL1       -0.2497
     13 N          44.3177   79.3908   19.4877 N.am    1  UNL1       -0.2163
     14 C          44.2976   78.0167   20.0888 C.2     1  UNL1        0.0744
     15 C          45.5470   72.6137   17.7980 C.ar    1  UNL1        0.0526
     16 C          46.6500   71.7005   18.2442 C.ar    1  UNL1        0.1007
     17 C          47.6345   71.9776   19.3415 C.3     1  UNL1        0.0557
     18 N          46.5959   70.4614   17.4006 N.ar    1  UNL1       -0.0817
     19 O          45.4592   70.6089   16.4329 O.2     1  UNL1       -0.3581
     20 C          44.8110   71.9391   16.6785 C.ar    1  UNL1        0.1545
     21 C          43.6335   72.4967   15.9352 C.3     1  UNL1        0.0754
     22 C          44.6843   79.7290   18.0730 C.ar    1  UNL1        0.0938
     23 C          43.6331   79.7190   17.0030 C.ar    1  UNL1        0.0184
     24 C          43.9996   80.0572   15.5884 C.ar    1  UNL1        0.0015
     25 C          45.4173   80.4054   15.2437 C.ar    1  UNL1        0.0032
     26 C          46.4685   80.4155   16.3137 C.ar    1  UNL1        0.0385
     27 C          46.1020   80.0773   17.7284 C.ar    1  UNL1        0.1607
     28 O          47.1531   80.0874   18.7984 O.3     1  UNL1       -0.4032
     29 C          47.8120   78.8058   19.2147 C.3     1  UNL1        0.5753
     30 F          48.4709   77.5241   19.6308 F       1  UNL1       -0.1328
     31 F          48.5064   78.7316   17.8872 F       1  UNL1       -0.1328
     32 F          47.1176   78.8799   20.5422 F       1  UNL1       -0.1328
     33 C          44.8070   75.4029   14.9774 C.3     1  UNL1        0.2525
     34 O          45.7687   75.0607   16.0765 O.3     1  UNL1       -0.4714
@<TRIPOS>BOND
     1    33    34    1
     2    34     1    1
     3     1     2   ar
     4     2     3   ar
     5     3     4   ar
     6     4     5   ar
     7     5     6   ar
     8     6    15    1
     9    15    16   ar
    10    16    17    1
    11    16    18   ar
    12    18    19   ar
    13    19    20   ar
    14    20    21    1
    15     4     7    2
    16     7     8    1
    17     8     9    1
    18     9    10    2
    19    10    11    1
    20    11    12    2
    21    11    13   am
    22    13    22    1
    23    22    23   ar
    24    23    24   ar
    25    24    25   ar
    26    25    26   ar
    27    26    27   ar
    28    27    28    1
    29    28    29    1
    30    29    30    1
    31    29    31    1
    32    29    32    1
    33    13    14    1
    34     6     1   ar
    35    20    15   ar
    36    14     9    1
    37    14     3    2
    38    27    22   ar
@<TRIPOS>MOLECULE
*****
 34 38 0 0 0
SMALL
GASTEIGER

@<TRIPOS>ATOM
      1 C          64.2651   87.0851   13.9985 C.ar    1  UNL1        0.1389
      2 C          64.3638   88.4441   13.3714 C.ar    1  UNL1        0.0397
      3 C          63.5208   88.7822   12.1776 C.ar    1  UNL1        0.0353
      4 C          62.5793   87.7613   11.6109 C.ar    1  UNL1        0.0779
      5 C          62.4806   86.4023   12.2380 C.ar    1  UNL1        0.0219
      6 C          63.3235   86.0642   13.4318 C.ar    1  UNL1        0.0394
      7 N          61.7363   88.0995   10.4171 N.2     1  UNL1       -0.2641
      8 C          61.8350   89.4585    9.7900 C.3     1  UNL1        0.1696
      9 C          62.7766   90.4795   10.3567 C.2     1  UNL1        0.0912
     10 N          63.0874   91.8908    9.9547 N.am    1  UNL1       -0.1627
     11 C          64.1223   92.4248   10.8999 C.2     1  UNL1        0.3350
     12 O          64.7229   93.7989   10.8650 O.2     1  UNL1       -0.2497
     13 N          64.4512   91.3437   11.8862 N.am    1  UNL1       -0.2163
     14 C          63.6195   90.1413   11.5505 C.2     1  UNL1        0.0744
     15 C          63.2248   84.7051   14.0589 C.ar    1  UNL1        0.0526
     16 C          62.6877   84.4019   15.4262 C.ar    1  UNL1        0.1007
     17 C          62.1549   85.4044   16.4065 C.3     1  UNL1        0.0557
     18 N          62.7768   82.9200   15.6411 N.ar    1  UNL1       -0.0817
     19 O          63.3691   82.3074   14.4066 O.2     1  UNL1       -0.3581
     20 C          63.6460   83.4107   13.4288 C.ar    1  UNL1        0.1545
     21 C          64.2398   83.2480   12.0610 C.3     1  UNL1        0.0754
     22 C          65.4385   91.4467   13.0108 C.ar    1  UNL1        0.0938
     23 C          66.9055   91.5461   12.7142 C.ar    1  UNL1        0.0184
     24 C          67.8928   91.6491   13.8388 C.ar    1  UNL1        0.0015
     25 C          67.4130   91.6527   15.2600 C.ar    1  UNL1        0.0032
     26 C          65.9460   91.5533   15.5566 C.ar    1  UNL1        0.0385
     27 C          64.9587   91.4503   14.4320 C.ar    1  UNL1        0.1607
     28 O          63.4917   91.3509   14.7286 O.3     1  UNL1       -0.4032
     29 C          62.9909   90.3242   15.7008 C.3     1  UNL1        0.5753
     30 F          62.4902   89.2976   16.6730 F       1  UNL1       -0.1328
     31 F          63.8510   90.9216   16.7747 F       1  UNL1       -0.1328
     32 F          62.1308   89.7267   14.6269 F       1  UNL1       -0.1328
     33 C          66.1613   85.6839   15.0899 C.3     1  UNL1        0.2525
     34 O          65.1080   86.7469   15.1923 O.3     1  UNL1       -0.4714
@<TRIPOS>BOND
     1    33    34    1
     2    34     1    1
     3     1     2   ar
     4     2     3   ar
     5     3     4   ar
     6     4     5   ar
     7     5     6   ar
     8     6    15    1
     9    15    16   ar
    10    16    17    1
    11    16    18   ar
    12    18    19   ar
    13    19    20   ar
    14    20    21    1
    15     4     7    2
    16     7     8    1
    17     8     9    1
    18     9    10    2
    19    10    11    1
    20    11    12    2
    21    11    13   am
    22    13    22    1
    23    22    23   ar
    24    23    24   ar
    25    24    25   ar
    26    25    26   ar
    27    26    27   ar
    28    27    28    1
    29    28    29    1
    30    29    30    1
    31    29    31    1
    32    29    32    1
    33    13    14    1
    34     6     1   ar
    35    20    15   ar
    36    14     9    1
    37    14     3    2
    38    27    22   ar
