@<TRIPOS>MOLECULE
*****
 42 45 0 0 0
SMALL
GASTEIGER

@<TRIPOS>ATOM
      1 N          64.3827   91.0002   13.1090 N.pl3   1  UNL1       -0.3025
      2 C          63.5532   91.7109   12.0809 C.3     1  UNL1        0.1124
      3 C          62.6949   90.9241   11.1352 C.3     1  UNL1        0.1149
      4 N          62.6661   89.4266   11.2176 N.am    1  UNL1       -0.2747
      5 C          61.8078   88.6399   10.2719 C.2     1  UNL1        0.2442
      6 O          60.9783   89.3505    9.2439 O.2     1  UNL1       -0.2731
      7 C          63.4955   88.7159   12.2457 C.3     1  UNL1        0.1149
      8 C          64.3538   89.5028   13.1914 C.3     1  UNL1        0.1124
      9 C          66.3261   92.6745   13.5210 C.ar    1  UNL1        0.0075
     10 C          67.1843   93.4613   14.4667 C.ar    1  UNL1       -0.0016
     11 C          66.9574   93.3606   15.9460 C.ar    1  UNL1        0.0021
     12 C          65.8723   92.4731   16.4797 C.ar    1  UNL1        0.0309
     13 C          65.0141   91.6863   15.5340 C.ar    1  UNL1        0.1530
     14 F          63.9289   90.7988   16.0676 F       1  UNL1       -0.2029
     15 C          65.2410   91.7870   14.0547 C.ar    1  UNL1        0.0730
     16 C          66.5530   92.7753   12.0417 C.3     1  UNL1        0.0781
     17 N          67.6416   91.9724   11.3935 N.3     1  UNL1       -0.2930
     18 H          67.6000   91.0378   11.8000 H       1  UNL1        0.1236
     19 C          67.6582   91.7963    9.9040 C.3     1  UNL1        0.1009
     20 C          68.7723   92.3869    9.0914 C.3     1  UNL1        0.1542
     21 O          69.6731   93.4233    9.6951 O.3     1  UNL1       -0.3805
     22 H          69.1628   94.2273    9.8796 H       1  UNL1        0.2105
     23 C          65.6912   93.6789   11.2106 C.3     1  UNL1        0.0203
     24 C          66.2508   96.1365   11.8410 C.3     1  UNL1        0.0001
     25 C          66.1886   95.0391   10.8202 C.3     1  UNL1        0.0017
     26 C          66.6238   95.3020    9.4090 C.3     1  UNL1        0.0001
     27 C          61.7790   87.1424   10.3544 C.3     1  UNL1        0.1564
     28 N          61.8395   86.3210    9.1007 N.am    1  UNL1       -0.2727
     29 C          63.0531   85.6238    8.5612 C.3     1  UNL1        0.0943
     30 C          62.6608   84.9244    7.2936 C.3     1  UNL1        0.0311
     31 C          61.2046   85.1894    7.0496 C.3     1  UNL1        0.0870
     32 C          60.6970   86.0525    8.1665 C.2     1  UNL1        0.2260
     33 O          59.2935   86.5583    8.3219 O.2     1  UNL1       -0.2749
     34 C          61.6896   86.4664   11.6904 C.3     1  UNL1        0.0564
     35 C          62.4456   85.1950   11.9397 C.ar    1  UNL1       -0.0094
     36 C          62.2197   84.0029   11.0576 C.ar    1  UNL1       -0.0025
     37 C          62.9757   82.7315   11.3069 C.ar    1  UNL1        0.0111
     38 C          63.9575   82.6522   12.4382 C.ar    1  UNL1        0.0585
     39 CL         64.7134   81.3809   12.6875 Cl      1  UNL1       -0.0822
     40 C          64.1833   83.8443   13.3202 C.ar    1  UNL1        0.0225
     41 C          63.4273   85.1157   13.0710 C.ar    1  UNL1        0.0546
     42 CL         63.6531   86.3077   13.9530 Cl      1  UNL1       -0.0825
@<TRIPOS>BOND
     1    24    25    1
     2    25    26    1
     3    25    23    1
     4    16    23    1
     5    16    17    1
     6    17    19    1
     7    19    20    1
     8    20    21    1
     9    16     9    1
    10     9    10   ar
    11    10    11   ar
    12    11    12   ar
    13    12    13   ar
    14    13    14    1
    15    13    15   ar
    16    15     1    1
    17     1     2    1
    18     2     3    1
    19     3     4    1
    20     4     5   am
    21     5     6    2
    22     5    27    1
    23    27    34    1
    24    34    35    1
    25    35    36   ar
    26    36    37   ar
    27    37    38   ar
    28    38    39    1
    29    38    40   ar
    30    40    41   ar
    31    41    42    1
    32    27    28    1
    33    28    29    1
    34    29    30    1
    35    30    31    1
    36    31    32    1
    37    32    33    2
    38     4     7    1
    39     7     8    1
    40    15     9   ar
    41     8     1    1
    42    41    35   ar
    43    32    28   am
    44    17    18    1
    45    21    22    1
@<TRIPOS>MOLECULE
*****
 42 45 0 0 0
SMALL
GASTEIGER

@<TRIPOS>ATOM
      1 N          61.6861   88.9666   10.5231 N.pl3   1  UNL1       -0.3025
      2 C          61.1534   89.2558   11.8951 C.3     1  UNL1        0.1124
      3 C          61.9897   90.0193   12.8788 C.3     1  UNL1        0.1149
      4 N          63.3588   90.4936   12.4903 N.am    1  UNL1       -0.2747
      5 C          64.1951   91.2571   13.4740 C.2     1  UNL1        0.2442
      6 O          63.6625   91.5464   14.8460 O.2     1  UNL1       -0.2731
      7 C          63.8914   90.2044   11.1183 C.3     1  UNL1        0.1149
      8 C          63.0550   89.4408   10.1346 C.3     1  UNL1        0.1124
      9 C          60.9780   86.7116    9.4443 C.ar    1  UNL1        0.0075
     10 C          60.1416   85.9481    8.4607 C.ar    1  UNL1       -0.0016
     11 C          59.1769   86.6761    7.5722 C.ar    1  UNL1        0.0021
     12 C          59.0486   88.1675    7.6673 C.ar    1  UNL1        0.0309
     13 C          59.8850   88.9310    8.6509 C.ar    1  UNL1        0.1530
     14 F          59.7567   90.4225    8.7460 F       1  UNL1       -0.2029
     15 C          60.8497   88.2030    9.5394 C.ar    1  UNL1        0.0730
     16 C          61.9426   85.9836   10.3328 C.3     1  UNL1        0.0781
     17 N          61.9020   86.1961   11.8171 N.3     1  UNL1       -0.2930
     18 H          61.5113   85.3470   12.2255 H       1  UNL1        0.1236
     19 C          63.1664   86.4951   12.5668 C.3     1  UNL1        0.1009
     20 C          63.6762   85.5276   13.5936 C.3     1  UNL1        0.1542
     21 O          64.6509   85.9861   14.6374 O.3     1  UNL1       -0.3805
     22 H          65.4886   86.2289   14.2131 H       1  UNL1        0.2105
     23 C          62.9479   85.0432    9.7371 C.3     1  UNL1        0.0203
     24 C          62.2926   83.1435   11.3839 C.3     1  UNL1        0.0001
     25 C          63.2799   83.7585   10.4367 C.3     1  UNL1        0.0017
     26 C          64.5991   83.0890   10.1893 C.3     1  UNL1        0.0001
     27 C          65.5641   91.7314   13.0855 C.3     1  UNL1        0.1564
     28 N          66.5186   92.2107   14.1386 N.am    1  UNL1       -0.2727
     29 C          66.1437   92.8192   15.4574 C.3     1  UNL1        0.0943
     30 C          67.4090   93.1503   16.1917 C.3     1  UNL1        0.0311
     31 C          68.5661   92.7465   15.3267 C.3     1  UNL1        0.0870
     32 C          68.0159   92.1658   14.0578 C.2     1  UNL1        0.2260
     33 O          68.8213   91.6337   12.9098 O.2     1  UNL1       -0.2749
     34 C          65.9786   91.7263   11.6439 C.3     1  UNL1        0.0564
     35 C          66.3710   93.0086   10.9718 C.ar    1  UNL1       -0.0094
     36 C          65.7043   94.2945   11.3620 C.ar    1  UNL1       -0.0025
     37 C          66.0967   95.5768   10.6900 C.ar    1  UNL1        0.0111
     38 C          67.1559   95.5733    9.6277 C.ar    1  UNL1        0.0585
     39 CL         67.5483   96.8556    8.9557 Cl      1  UNL1       -0.0822
     40 C          67.8225   94.2875    9.2376 C.ar    1  UNL1        0.0225
     41 C          67.4301   93.0052    9.9096 C.ar    1  UNL1        0.0546
     42 CL         68.0968   91.7194    9.5195 Cl      1  UNL1       -0.0825
@<TRIPOS>BOND
     1    24    25    1
     2    25    26    1
     3    25    23    1
     4    16    23    1
     5    16    17    1
     6    17    19    1
     7    19    20    1
     8    20    21    1
     9    16     9    1
    10     9    10   ar
    11    10    11   ar
    12    11    12   ar
    13    12    13   ar
    14    13    14    1
    15    13    15   ar
    16    15     1    1
    17     1     2    1
    18     2     3    1
    19     3     4    1
    20     4     5   am
    21     5     6    2
    22     5    27    1
    23    27    34    1
    24    34    35    1
    25    35    36   ar
    26    36    37   ar
    27    37    38   ar
    28    38    39    1
    29    38    40   ar
    30    40    41   ar
    31    41    42    1
    32    27    28    1
    33    28    29    1
    34    29    30    1
    35    30    31    1
    36    31    32    1
    37    32    33    2
    38     4     7    1
    39     7     8    1
    40    15     9   ar
    41     8     1    1
    42    41    35   ar
    43    32    28   am
    44    17    18    1
    45    21    22    1
@<TRIPOS>MOLECULE
*****
 42 45 0 0 0
SMALL
GASTEIGER

@<TRIPOS>ATOM
      1 N          61.6204   89.0066   10.3574 N.pl3   1  UNL1       -0.3025
      2 C          61.0880   89.3061   11.7274 C.3     1  UNL1        0.1124
      3 C          61.9327   90.0588   12.7122 C.3     1  UNL1        0.1149
      4 N          63.3097   90.5121   12.3271 N.am    1  UNL1       -0.2747
      5 C          64.1544   91.2649   13.3119 C.2     1  UNL1        0.2442
      6 O          63.6220   91.5644   14.6819 O.2     1  UNL1       -0.2731
      7 C          63.8421   90.2126   10.9571 C.3     1  UNL1        0.1149
      8 C          62.9974   89.4598    9.9722 C.3     1  UNL1        0.1124
      9 C          60.9191   86.7662    9.2443 C.ar    1  UNL1        0.0075
     10 C          60.0744   86.0135    8.2595 C.ar    1  UNL1       -0.0016
     11 C          59.0863   86.7483    7.4030 C.ar    1  UNL1        0.0021
     12 C          58.9428   88.2359    7.5313 C.ar    1  UNL1        0.0309
     13 C          59.7875   88.9886    8.5161 C.ar    1  UNL1        0.1530
     14 F          59.6441   90.4762    8.6445 F       1  UNL1       -0.2029
     15 C          60.7757   88.2537    9.3726 C.ar    1  UNL1        0.0730
     16 C          61.9073   86.0313   10.1008 C.3     1  UNL1        0.0781
     17 N          63.2045   85.5601    9.5133 N.3     1  UNL1       -0.2930
     18 H          63.9297   85.7607   10.2020 H       1  UNL1        0.1236
     19 C          63.3699   84.1231    9.1162 C.3     1  UNL1        0.1009
     20 C          64.1373   83.1845    9.9996 C.3     1  UNL1        0.1542
     21 O          63.4620   81.9747   10.5743 O.3     1  UNL1       -0.3805
     22 H          62.7715   82.2544   11.1956 H       1  UNL1        0.2105
     23 C          61.5982   85.7677   11.5447 C.3     1  UNL1        0.0203
     24 C          62.9880   84.2813   13.1600 C.3     1  UNL1        0.0001
     25 C          62.7145   85.6174   12.5353 C.3     1  UNL1        0.0017
     26 C          63.5572   86.8031   12.9013 C.3     1  UNL1        0.0001
     27 C          65.5314   91.7181   12.9267 C.3     1  UNL1        0.1564
     28 N          66.4915   92.1804   13.9823 N.am    1  UNL1       -0.2727
     29 C          67.3317   91.2980   14.8573 C.3     1  UNL1        0.0943
     30 C          68.1395   92.1784   15.7642 C.3     1  UNL1        0.0311
     31 C          67.7986   93.6049   15.4496 C.3     1  UNL1        0.0870
     32 C          66.7801   93.6062   14.3484 C.2     1  UNL1        0.2260
     33 O          66.1593   94.8199   13.7230 O.2     1  UNL1       -0.2749
     34 C          65.9483   91.7092   11.4857 C.3     1  UNL1        0.0564
     35 C          66.3053   92.9947   10.8003 C.ar    1  UNL1       -0.0094
     36 C          65.4215   94.1970   10.9536 C.ar    1  UNL1       -0.0025
     37 C          65.7785   95.4826   10.2681 C.ar    1  UNL1        0.0111
     38 C          67.0193   95.5659    9.4294 C.ar    1  UNL1        0.0585
     39 CL         67.3764   96.8514    8.7439 Cl      1  UNL1       -0.0822
     40 C          67.9031   94.3636    9.2761 C.ar    1  UNL1        0.0225
     41 C          67.5461   93.0780    9.9616 C.ar    1  UNL1        0.0546
     42 CL         68.4298   91.8758    9.8083 Cl      1  UNL1       -0.0825
@<TRIPOS>BOND
     1    24    25    1
     2    25    26    1
     3    25    23    1
     4    16    23    1
     5    16    17    1
     6    17    19    1
     7    19    20    1
     8    20    21    1
     9    16     9    1
    10     9    10   ar
    11    10    11   ar
    12    11    12   ar
    13    12    13   ar
    14    13    14    1
    15    13    15   ar
    16    15     1    1
    17     1     2    1
    18     2     3    1
    19     3     4    1
    20     4     5   am
    21     5     6    2
    22     5    27    1
    23    27    34    1
    24    34    35    1
    25    35    36   ar
    26    36    37   ar
    27    37    38   ar
    28    38    39    1
    29    38    40   ar
    30    40    41   ar
    31    41    42    1
    32    27    28    1
    33    28    29    1
    34    29    30    1
    35    30    31    1
    36    31    32    1
    37    32    33    2
    38     4     7    1
    39     7     8    1
    40    15     9   ar
    41     8     1    1
    42    41    35   ar
    43    32    28   am
    44    17    18    1
    45    21    22    1
@<TRIPOS>MOLECULE
*****
 42 45 0 0 0
SMALL
GASTEIGER

@<TRIPOS>ATOM
      1 N          61.5619   89.1308   10.5505 N.pl3   1  UNL1       -0.3025
      2 C          61.1917   89.0353   12.0009 C.3     1  UNL1        0.1124
      3 C          61.9760   89.7982   13.0270 C.3     1  UNL1        0.1149
      4 N          63.1305   90.6567   12.6026 N.am    1  UNL1       -0.2747
      5 C          63.9148   91.4197   13.6286 C.2     1  UNL1        0.2442
      6 O          63.5446   91.3242   15.0791 O.2     1  UNL1       -0.2731
      7 C          63.5007   90.7523   11.1521 C.3     1  UNL1        0.1149
      8 C          62.7164   89.9893   10.1261 C.3     1  UNL1        0.1124
      9 C          60.9660   86.8862    9.3857 C.ar    1  UNL1        0.0075
     10 C          60.1817   86.1233    8.3597 C.ar    1  UNL1       -0.0016
     11 C          59.2089   86.8420    7.4724 C.ar    1  UNL1        0.0021
     12 C          59.0205   88.3236    7.6111 C.ar    1  UNL1        0.0309
     13 C          59.8048   89.0865    8.6372 C.ar    1  UNL1        0.1530
     14 F          59.6164   90.5682    8.7759 F       1  UNL1       -0.2029
     15 C          60.7776   88.3678    9.5244 C.ar    1  UNL1        0.0730
     16 C          61.9387   86.1675   10.2730 C.3     1  UNL1        0.0781
     17 N          61.5657   85.8467   11.6899 N.3     1  UNL1       -0.2930
     18 H          60.6126   85.4840   11.6686 H       1  UNL1        0.1236
     19 C          62.3843   84.8671   12.4776 C.3     1  UNL1        0.1009
     20 C          63.4155   85.3611   13.4485 C.3     1  UNL1        0.1542
     21 O          63.7383   86.8242   13.5200 O.3     1  UNL1       -0.3805
     22 H          64.1507   87.1054   12.6882 H       1  UNL1        0.2105
     23 C          63.2845   85.7696    9.7433 C.3     1  UNL1        0.0203
     24 C          63.9683   83.2670    9.6055 C.3     1  UNL1        0.0001
     25 C          63.4343   84.5057    8.9495 C.3     1  UNL1        0.0017
     26 C          63.0502   84.4806    7.4998 C.3     1  UNL1        0.0001
     27 C          65.0693   92.2781   13.2042 C.3     1  UNL1        0.1564
     28 N          66.2604   92.4312   14.1030 N.am    1  UNL1       -0.2727
     29 C          66.9410   91.3296   14.8601 C.3     1  UNL1        0.0943
     30 C          68.0812   91.9303   15.6276 C.3     1  UNL1        0.0311
     31 C          68.1053   93.4032   15.3448 C.3     1  UNL1        0.0870
     32 C          66.9800   93.7129   14.4026 C.2     1  UNL1        0.2260
     33 O          66.6349   95.0663   13.8559 O.2     1  UNL1       -0.2749
     34 C          65.0327   92.9836   11.8809 C.3     1  UNL1        0.0564
     35 C          66.1997   92.8814   10.9440 C.ar    1  UNL1       -0.0094
     36 C          67.0345   91.6353   10.9190 C.ar    1  UNL1       -0.0025
     37 C          68.2015   91.5332    9.9822 C.ar    1  UNL1        0.0111
     38 C          68.5337   92.6770    9.0703 C.ar    1  UNL1        0.0585
     39 CL         69.7007   92.5748    8.1335 Cl      1  UNL1       -0.0822
     40 C          67.6989   93.9230    9.0954 C.ar    1  UNL1        0.0225
     41 C          66.5319   94.0252   10.0322 C.ar    1  UNL1        0.0546
     42 CL         65.6971   95.2711   10.0573 Cl      1  UNL1       -0.0825
@<TRIPOS>BOND
     1    24    25    1
     2    25    26    1
     3    25    23    1
     4    16    23    1
     5    16    17    1
     6    17    19    1
     7    19    20    1
     8    20    21    1
     9    16     9    1
    10     9    10   ar
    11    10    11   ar
    12    11    12   ar
    13    12    13   ar
    14    13    14    1
    15    13    15   ar
    16    15     1    1
    17     1     2    1
    18     2     3    1
    19     3     4    1
    20     4     5   am
    21     5     6    2
    22     5    27    1
    23    27    34    1
    24    34    35    1
    25    35    36   ar
    26    36    37   ar
    27    37    38   ar
    28    38    39    1
    29    38    40   ar
    30    40    41   ar
    31    41    42    1
    32    27    28    1
    33    28    29    1
    34    29    30    1
    35    30    31    1
    36    31    32    1
    37    32    33    2
    38     4     7    1
    39     7     8    1
    40    15     9   ar
    41     8     1    1
    42    41    35   ar
    43    32    28   am
    44    17    18    1
    45    21    22    1
@<TRIPOS>MOLECULE
*****
 42 45 0 0 0
SMALL
GASTEIGER

@<TRIPOS>ATOM
      1 N          63.4582   85.5354   13.8743 N.pl3   1  UNL1       -0.3025
      2 C          63.0419   85.7744   15.2954 C.3     1  UNL1        0.1124
      3 C          63.1876   87.1393   15.9002 C.3     1  UNL1        0.1149
      4 N          63.7496   88.2653   15.0839 N.am    1  UNL1       -0.2747
      5 C          63.8953   89.6302   15.6887 C.2     1  UNL1        0.2442
      6 O          63.4790   89.8691   17.1098 O.2     1  UNL1       -0.2731
      7 C          64.1659   88.0263   13.6628 C.3     1  UNL1        0.1149
      8 C          64.0202   86.6614   13.0580 C.3     1  UNL1        0.1124
      9 C          62.7129   84.0156   11.9033 C.ar    1  UNL1        0.0075
     10 C          62.5672   82.6507   11.2986 C.ar    1  UNL1       -0.0016
     11 C          63.0211   81.4406   12.0601 C.ar    1  UNL1        0.0021
     12 C          63.6206   81.5955   13.4262 C.ar    1  UNL1        0.0309
     13 C          63.7663   82.9604   14.0310 C.ar    1  UNL1        0.1530
     14 F          64.3659   83.1154   15.3972 F       1  UNL1       -0.2029
     15 C          63.3125   84.1705   13.2695 C.ar    1  UNL1        0.0730
     16 C          62.2591   85.2256   11.1418 C.3     1  UNL1        0.0781
     17 N          61.1491   86.0783   11.6810 N.3     1  UNL1       -0.2930
     18 H          61.1466   85.9530   12.6933 H       1  UNL1        0.1236
     19 C          61.1483   87.5568   11.4278 C.3     1  UNL1        0.1009
     20 C          59.8496   88.2881   11.2588 C.3     1  UNL1        0.1542
     21 O          59.0214   88.6335   12.4608 O.3     1  UNL1       -0.3805
     22 H          58.6963   87.8186   12.8745 H       1  UNL1        0.2105
     23 C          62.9152   85.5830    9.8412 C.3     1  UNL1        0.0203
     24 C          60.7737   86.0468    8.4451 C.3     1  UNL1        0.0001
     25 C          62.1501   85.4610    8.5568 C.3     1  UNL1        0.0017
     26 C          62.7613   84.7532    7.3840 C.3     1  UNL1        0.0001
     27 C          64.4573   90.7561   14.8724 C.3     1  UNL1        0.1564
     28 N          65.7359   91.4199   15.2901 N.am    1  UNL1       -0.2727
     29 C          67.0927   91.1691   14.7017 C.3     1  UNL1        0.0943
     30 C          68.0776   92.0452   15.4175 C.3     1  UNL1        0.0311
     31 C          67.3296   92.8375   16.4483 C.3     1  UNL1        0.0870
     32 C          65.8823   92.4511   16.3696 C.2     1  UNL1        0.2260
     33 O          64.7758   92.9995   17.2209 O.2     1  UNL1       -0.2749
     34 C          63.7407   91.2183   13.6383 C.3     1  UNL1        0.0564
     35 C          64.4956   91.9297   12.5548 C.ar    1  UNL1       -0.0094
     36 C          65.5168   92.9693   12.9106 C.ar    1  UNL1       -0.0025
     37 C          66.2717   93.6807   11.8270 C.ar    1  UNL1        0.0111
     38 C          66.0053   93.3526   10.3878 C.ar    1  UNL1        0.0585
     39 CL         66.7602   94.0640    9.3042 Cl      1  UNL1       -0.0822
     40 C          64.9842   92.3131   10.0320 C.ar    1  UNL1        0.0225
     41 C          64.2293   91.6016   11.1156 C.ar    1  UNL1        0.0546
     42 CL         63.2082   90.5621   10.7598 Cl      1  UNL1       -0.0825
@<TRIPOS>BOND
     1    24    25    1
     2    25    26    1
     3    25    23    1
     4    16    23    1
     5    16    17    1
     6    17    19    1
     7    19    20    1
     8    20    21    1
     9    16     9    1
    10     9    10   ar
    11    10    11   ar
    12    11    12   ar
    13    12    13   ar
    14    13    14    1
    15    13    15   ar
    16    15     1    1
    17     1     2    1
    18     2     3    1
    19     3     4    1
    20     4     5   am
    21     5     6    2
    22     5    27    1
    23    27    34    1
    24    34    35    1
    25    35    36   ar
    26    36    37   ar
    27    37    38   ar
    28    38    39    1
    29    38    40   ar
    30    40    41   ar
    31    41    42    1
    32    27    28    1
    33    28    29    1
    34    29    30    1
    35    30    31    1
    36    31    32    1
    37    32    33    2
    38     4     7    1
    39     7     8    1
    40    15     9   ar
    41     8     1    1
    42    41    35   ar
    43    32    28   am
    44    17    18    1
    45    21    22    1
@<TRIPOS>MOLECULE
*****
 42 45 0 0 0
SMALL
GASTEIGER

@<TRIPOS>ATOM
      1 N          64.2069   91.0677   12.7783 N.pl3   1  UNL1       -0.3025
      2 C          63.3835   91.7829   11.7485 C.3     1  UNL1        0.1124
      3 C          62.4816   91.0049   10.8368 C.3     1  UNL1        0.1149
      4 N          62.4032   89.5116   10.9548 N.am    1  UNL1       -0.2747
      5 C          61.5013   88.7336   10.0431 C.2     1  UNL1        0.2442
      6 O          60.6779   89.4488    9.0133 O.2     1  UNL1       -0.2731
      7 C          63.2266   88.7963   11.9846 C.3     1  UNL1        0.1149
      8 C          64.1285   89.5745   12.8963 C.3     1  UNL1        0.1124
      9 C          65.9959   92.9184   13.1311 C.ar    1  UNL1        0.0075
     10 C          66.8977   93.6965   14.0428 C.ar    1  UNL1       -0.0016
     11 C          66.9124   93.4019   15.5136 C.ar    1  UNL1        0.0021
     12 C          66.0253   92.3293   16.0725 C.ar    1  UNL1        0.0309
     13 C          65.1235   91.5512   15.1608 C.ar    1  UNL1        0.1530
     14 F          64.2363   90.4786   15.7197 F       1  UNL1       -0.2029
     15 C          65.1088   91.8458   13.6901 C.ar    1  UNL1        0.0730
     16 C          65.9812   93.2130   11.6604 C.3     1  UNL1        0.0781
     17 N          65.3907   94.4973   11.1586 N.3     1  UNL1       -0.2930
     18 H          64.6965   94.7906   11.8459 H       1  UNL1        0.1236
     19 C          66.2761   95.6813   10.9051 C.3     1  UNL1        0.1009
     20 C          67.0092   95.8044    9.6022 C.3     1  UNL1        0.1542
     21 O          66.5265   95.0541    8.3963 O.3     1  UNL1       -0.3805
     22 H          66.6240   94.1010    8.5481 H       1  UNL1        0.2105
     23 C          66.5569   92.2233   10.6914 C.3     1  UNL1        0.0203
     24 C          68.7452   92.4389    9.3077 C.3     1  UNL1        0.0001
     25 C          68.0439   92.0618   10.5789 C.3     1  UNL1        0.0017
     26 C          68.8296   91.5232   11.7376 C.3     1  UNL1        0.0001
     27 C          61.4229   87.2403   10.1611 C.3     1  UNL1        0.1564
     28 N          61.2820   86.3969    8.9287 N.am    1  UNL1       -0.2727
     29 C          59.9973   86.0671    8.2281 C.3     1  UNL1        0.0943
     30 C          60.3223   85.2016    7.0469 C.3     1  UNL1        0.0311
     31 C          61.8079   84.9964    7.0175 C.3     1  UNL1        0.0870
     32 C          62.4011   85.7352    8.1805 C.2     1  UNL1        0.2260
     33 O          63.8575   85.8006    8.5333 O.2     1  UNL1       -0.2749
     34 C          61.4854   86.5904   11.5116 C.3     1  UNL1        0.0564
     35 C          62.3048   85.3497   11.7096 C.ar    1  UNL1       -0.0094
     36 C          62.1115   84.1705   10.8028 C.ar    1  UNL1       -0.0025
     37 C          62.9309   82.9298   11.0008 C.ar    1  UNL1        0.0111
     38 C          63.9437   82.8683   12.1057 C.ar    1  UNL1        0.0585
     39 CL         64.7631   81.6276   12.3037 Cl      1  UNL1       -0.0822
     40 C          64.1369   84.0474   13.0124 C.ar    1  UNL1        0.0225
     41 C          63.3175   85.2881   12.8144 C.ar    1  UNL1        0.0546
     42 CL         63.5108   86.4672   13.7211 Cl      1  UNL1       -0.0825
@<TRIPOS>BOND
     1    24    25    1
     2    25    26    1
     3    25    23    1
     4    16    23    1
     5    16    17    1
     6    17    19    1
     7    19    20    1
     8    20    21    1
     9    16     9    1
    10     9    10   ar
    11    10    11   ar
    12    11    12   ar
    13    12    13   ar
    14    13    14    1
    15    13    15   ar
    16    15     1    1
    17     1     2    1
    18     2     3    1
    19     3     4    1
    20     4     5   am
    21     5     6    2
    22     5    27    1
    23    27    34    1
    24    34    35    1
    25    35    36   ar
    26    36    37   ar
    27    37    38   ar
    28    38    39    1
    29    38    40   ar
    30    40    41   ar
    31    41    42    1
    32    27    28    1
    33    28    29    1
    34    29    30    1
    35    30    31    1
    36    31    32    1
    37    32    33    2
    38     4     7    1
    39     7     8    1
    40    15     9   ar
    41     8     1    1
    42    41    35   ar
    43    32    28   am
    44    17    18    1
    45    21    22    1
@<TRIPOS>MOLECULE
*****
 42 45 0 0 0
SMALL
GASTEIGER

@<TRIPOS>ATOM
      1 N          58.1748   95.7785   -2.5861 N.pl3   1  UNL1       -0.3025
      2 C          57.8383   96.5850   -1.3669 C.3     1  UNL1        0.1124
      3 C          58.7436   96.5505   -0.1714 C.3     1  UNL1        0.1149
      4 N          59.9855   95.7094   -0.1951 N.am    1  UNL1       -0.2747
      5 C          60.8908   95.6749    1.0004 C.2     1  UNL1        0.2442
      6 O          60.5543   96.4814    2.2195 O.2     1  UNL1       -0.2731
      7 C          60.3219   94.9029   -1.4142 C.3     1  UNL1        0.1149
      8 C          59.4165   94.9375   -2.6097 C.3     1  UNL1        0.1124
      9 C          55.8554   95.3261   -3.6659 C.ar    1  UNL1        0.0075
     10 C          54.9501   95.3607   -4.8613 C.ar    1  UNL1       -0.0016
     11 C          55.4588   95.8822   -6.1725 C.ar    1  UNL1        0.0021
     12 C          56.8728   96.3692   -6.2882 C.ar    1  UNL1        0.0309
     13 C          57.7781   96.3347   -5.0928 C.ar    1  UNL1        0.1530
     14 F          59.1922   96.8217   -5.2084 F       1  UNL1       -0.2029
     15 C          57.2694   95.8131   -3.7816 C.ar    1  UNL1        0.0730
     16 C          55.3467   94.8045   -2.3547 C.3     1  UNL1        0.0781
     17 N          54.8068   95.7554   -1.3279 N.3     1  UNL1       -0.2930
     18 H          55.5833   96.3515   -1.0415 H       1  UNL1        0.1236
     19 C          53.6668   96.6663   -1.6753 C.3     1  UNL1        0.1009
     20 C          52.4996   96.1420   -2.4581 C.3     1  UNL1        0.1542
     21 O          51.8066   94.8857   -2.0206 O.3     1  UNL1       -0.3805
     22 H          52.4130   94.1339   -2.1102 H       1  UNL1        0.2105
     23 C          55.3780   93.3321   -2.0703 C.3     1  UNL1        0.0203
     24 C          57.1692   91.9621   -3.3606 C.3     1  UNL1        0.0001
     25 C          56.6826   92.5921   -2.0892 C.3     1  UNL1        0.0017
     26 C          57.5006   92.4820   -0.8367 C.3     1  UNL1        0.0001
     27 C          62.1325   94.8338    0.9767 C.3     1  UNL1        0.1564
     28 N          63.4762   95.4842    0.8301 N.am    1  UNL1       -0.2727
     29 C          64.1938   96.2729    1.8851 C.3     1  UNL1        0.0943
     30 C          65.4994   96.7362    1.3098 C.3     1  UNL1        0.0311
     31 C          65.5886   96.2339   -0.1008 C.3     1  UNL1        0.0870
     32 C          64.3382   95.4601   -0.3973 C.2     1  UNL1        0.2260
     33 O          64.0079   94.7815   -1.6935 O.2     1  UNL1       -0.2749
     34 C          62.0306   93.3423    1.0996 C.3     1  UNL1        0.0564
     35 C          61.2969   92.7336    2.2577 C.ar    1  UNL1       -0.0094
     36 C          59.8314   92.9974    2.4393 C.ar    1  UNL1       -0.0025
     37 C          59.0977   92.3887    3.5974 C.ar    1  UNL1        0.0111
     38 C          59.8294   91.5162    4.5739 C.ar    1  UNL1        0.0585
     39 CL         59.0957   90.9076    5.7320 Cl      1  UNL1       -0.0822
     40 C          61.2948   91.2525    4.3922 C.ar    1  UNL1        0.0225
     41 C          62.0286   91.8612    3.2342 C.ar    1  UNL1        0.0546
     42 CL         63.4939   91.5974    3.0525 Cl      1  UNL1       -0.0825
@<TRIPOS>BOND
     1    24    25    1
     2    25    26    1
     3    25    23    1
     4    16    23    1
     5    16    17    1
     6    17    19    1
     7    19    20    1
     8    20    21    1
     9    16     9    1
    10     9    10   ar
    11    10    11   ar
    12    11    12   ar
    13    12    13   ar
    14    13    14    1
    15    13    15   ar
    16    15     1    1
    17     1     2    1
    18     2     3    1
    19     3     4    1
    20     4     5   am
    21     5     6    2
    22     5    27    1
    23    27    34    1
    24    34    35    1
    25    35    36   ar
    26    36    37   ar
    27    37    38   ar
    28    38    39    1
    29    38    40   ar
    30    40    41   ar
    31    41    42    1
    32    27    28    1
    33    28    29    1
    34    29    30    1
    35    30    31    1
    36    31    32    1
    37    32    33    2
    38     4     7    1
    39     7     8    1
    40    15     9   ar
    41     8     1    1
    42    41    35   ar
    43    32    28   am
    44    17    18    1
    45    21    22    1
@<TRIPOS>MOLECULE
*****
 42 45 0 0 0
SMALL
GASTEIGER

@<TRIPOS>ATOM
      1 N          58.7241   94.6010   -3.6342 N.pl3   1  UNL1       -0.3025
      2 C          58.9016   96.0068   -3.1419 C.3     1  UNL1        0.1124
      3 C          59.8316   96.2897   -1.9996 C.3     1  UNL1        0.1149
      4 N          60.5843   95.1667   -1.3495 N.am    1  UNL1       -0.2747
      5 C          61.5144   95.4496   -0.2072 C.2     1  UNL1        0.2442
      6 O          61.6918   96.8553    0.2851 O.2     1  UNL1       -0.2731
      7 C          60.4069   93.7610   -1.8418 C.3     1  UNL1        0.1149
      8 C          59.4768   93.4781   -2.9842 C.3     1  UNL1        0.1124
      9 C          56.3109   94.3116   -4.5523 C.ar    1  UNL1        0.0075
     10 C          55.3809   94.0288   -5.6946 C.ar    1  UNL1       -0.0016
     11 C          55.9339   93.7526   -7.0613 C.ar    1  UNL1        0.0021
     12 C          57.4170   93.7591   -7.2856 C.ar    1  UNL1        0.0309
     13 C          58.3470   94.0419   -6.1433 C.ar    1  UNL1        0.1530
     14 F          59.8302   94.0485   -6.3676 F       1  UNL1       -0.2029
     15 C          57.7940   94.3182   -4.7766 C.ar    1  UNL1        0.0730
     16 C          55.7579   94.5879   -3.1856 C.3     1  UNL1        0.0781
     17 N          55.4246   93.4497   -2.2672 N.3     1  UNL1       -0.2930
     18 H          54.4980   93.1174   -2.5343 H       1  UNL1        0.1236
     19 C          56.3170   92.2454   -2.2110 C.3     1  UNL1        0.1009
     20 C          56.1155   91.1168   -3.1784 C.3     1  UNL1        0.1542
     21 O          57.1928   90.7720   -4.1635 O.3     1  UNL1       -0.3805
     22 H          57.3050   91.5044   -4.7896 H       1  UNL1        0.2105
     23 C          55.5380   96.0023   -2.7373 C.3     1  UNL1        0.0203
     24 C          52.9760   96.3884   -2.9294 C.3     1  UNL1        0.0001
     25 C          54.2332   96.3965   -2.1112 C.3     1  UNL1        0.0017
     26 C          54.1855   96.7986   -0.6669 C.3     1  UNL1        0.0001
     27 C          62.2670   94.3267    0.4428 C.3     1  UNL1        0.1564
     28 N          61.6537   93.5766    1.5879 N.am    1  UNL1       -0.2727
     29 C          60.2497   93.7318    2.0926 C.3     1  UNL1        0.0943
     30 C          60.0650   92.7908    3.2460 C.3     1  UNL1        0.0311
     31 C          61.3549   92.0540    3.4542 C.3     1  UNL1        0.0870
     32 C          62.3368   92.5397    2.4295 C.2     1  UNL1        0.2260
     33 O          63.7530   92.0707    2.2737 O.2     1  UNL1       -0.2749
     34 C          63.6330   93.9538   -0.0523 C.3     1  UNL1        0.0564
     35 C          64.0636   94.3485   -1.4339 C.ar    1  UNL1       -0.0094
     36 C          63.7640   93.4511   -2.5979 C.ar    1  UNL1       -0.0025
     37 C          64.1946   93.8459   -3.9795 C.ar    1  UNL1        0.0111
     38 C          64.9248   95.1380   -4.1970 C.ar    1  UNL1        0.0585
     39 CL         65.3554   95.5328   -5.5786 Cl      1  UNL1       -0.0822
     40 C          65.2244   96.0353   -3.0330 C.ar    1  UNL1        0.0225
     41 C          64.7938   95.6406   -1.6514 C.ar    1  UNL1        0.0546
     42 CL         65.0934   96.5379   -0.4873 Cl      1  UNL1       -0.0825
@<TRIPOS>BOND
     1    24    25    1
     2    25    26    1
     3    25    23    1
     4    16    23    1
     5    16    17    1
     6    17    19    1
     7    19    20    1
     8    20    21    1
     9    16     9    1
    10     9    10   ar
    11    10    11   ar
    12    11    12   ar
    13    12    13   ar
    14    13    14    1
    15    13    15   ar
    16    15     1    1
    17     1     2    1
    18     2     3    1
    19     3     4    1
    20     4     5   am
    21     5     6    2
    22     5    27    1
    23    27    34    1
    24    34    35    1
    25    35    36   ar
    26    36    37   ar
    27    37    38   ar
    28    38    39    1
    29    38    40   ar
    30    40    41   ar
    31    41    42    1
    32    27    28    1
    33    28    29    1
    34    29    30    1
    35    30    31    1
    36    31    32    1
    37    32    33    2
    38     4     7    1
    39     7     8    1
    40    15     9   ar
    41     8     1    1
    42    41    35   ar
    43    32    28   am
    44    17    18    1
    45    21    22    1
@<TRIPOS>MOLECULE
*****
 42 45 0 0 0
SMALL
GASTEIGER

@<TRIPOS>ATOM
      1 N          61.9087   88.8786   10.5807 N.pl3   1  UNL1       -0.3025
      2 C          62.0748   88.1698   11.8922 C.3     1  UNL1        0.1124
      3 C          63.0077   88.7207   12.9296 C.3     1  UNL1        0.1149
      4 N          63.7747   89.9804   12.6554 N.am    1  UNL1       -0.2747
      5 C          64.7076   90.5312   13.6928 C.2     1  UNL1        0.2442
      6 O          64.8736   89.8225   15.0043 O.2     1  UNL1       -0.2731
      7 C          63.6086   90.6891   11.3439 C.3     1  UNL1        0.1149
      8 C          62.6756   90.1382   10.3065 C.3     1  UNL1        0.1124
      9 C          61.0159   86.8686    9.1975 C.ar    1  UNL1        0.0075
     10 C          60.0830   86.3178    8.1602 C.ar    1  UNL1       -0.0016
     11 C          59.1098   87.2260    7.4687 C.ar    1  UNL1        0.0021
     12 C          59.0696   88.6850    7.8145 C.ar    1  UNL1        0.0309
     13 C          60.0025   89.2358    8.8518 C.ar    1  UNL1        0.1530
     14 F          59.9624   90.6949    9.1977 F       1  UNL1       -0.2029
     15 C          60.9757   88.3277    9.5433 C.ar    1  UNL1        0.0730
     16 C          61.9891   85.9605    9.8890 C.3     1  UNL1        0.0781
     17 N          63.2371   85.5210    9.1824 N.3     1  UNL1       -0.2930
     18 H          63.8771   85.1800    9.8997 H       1  UNL1        0.1236
     19 C          63.1660   84.4591    8.1253 C.3     1  UNL1        0.1009
     20 C          62.7876   84.8236    6.7203 C.3     1  UNL1        0.1542
     21 O          61.6056   84.1696    6.0683 O.3     1  UNL1       -0.3805
     22 H          61.7849   83.2239    5.9479 H       1  UNL1        0.2105
     23 C          61.7143   85.4919   11.2871 C.3     1  UNL1        0.0203
     24 C          62.7093   83.1058   11.5456 C.3     1  UNL1        0.0001
     25 C          62.6637   84.5463   11.9614 C.3     1  UNL1        0.0017
     26 C          63.5675   85.0412   13.0514 C.3     1  UNL1        0.0001
     27 C          65.4745   91.7908   13.4186 C.3     1  UNL1        0.1564
     28 N          66.6136   92.1847   14.3114 N.am    1  UNL1       -0.2727
     29 C          68.0674   92.1750   13.9422 C.3     1  UNL1        0.0943
     30 C          68.8513   92.6418   15.1329 C.3     1  UNL1        0.0311
     31 C          67.8819   92.9401   16.2380 C.3     1  UNL1        0.0870
     32 C          66.4989   92.6576   15.7304 C.2     1  UNL1        0.2260
     33 O          65.2250   92.8196   16.5055 O.2     1  UNL1       -0.2749
     34 C          65.1023   92.6565   12.2515 C.3     1  UNL1        0.0564
     35 C          66.0751   92.8596   11.1279 C.ar    1  UNL1       -0.0094
     36 C          66.9984   91.7481   10.7251 C.ar    1  UNL1       -0.0025
     37 C          67.9712   91.9511    9.6016 C.ar    1  UNL1        0.0111
     38 C          68.0208   93.2657    8.8809 C.ar    1  UNL1        0.0585
     39 CL         68.9937   93.4688    7.7573 Cl      1  UNL1       -0.0822
     40 C          67.0976   94.3772    9.2836 C.ar    1  UNL1        0.0225
     41 C          66.1248   94.1741   10.4072 C.ar    1  UNL1        0.0546
     42 CL         65.2015   95.2856   10.8100 Cl      1  UNL1       -0.0825
@<TRIPOS>BOND
     1    24    25    1
     2    25    26    1
     3    25    23    1
     4    16    23    1
     5    16    17    1
     6    17    19    1
     7    19    20    1
     8    20    21    1
     9    16     9    1
    10     9    10   ar
    11    10    11   ar
    12    11    12   ar
    13    12    13   ar
    14    13    14    1
    15    13    15   ar
    16    15     1    1
    17     1     2    1
    18     2     3    1
    19     3     4    1
    20     4     5   am
    21     5     6    2
    22     5    27    1
    23    27    34    1
    24    34    35    1
    25    35    36   ar
    26    36    37   ar
    27    37    38   ar
    28    38    39    1
    29    38    40   ar
    30    40    41   ar
    31    41    42    1
    32    27    28    1
    33    28    29    1
    34    29    30    1
    35    30    31    1
    36    31    32    1
    37    32    33    2
    38     4     7    1
    39     7     8    1
    40    15     9   ar
    41     8     1    1
    42    41    35   ar
    43    32    28   am
    44    17    18    1
    45    21    22    1
