@<TRIPOS>MOLECULE
*****
 36 39 0 0 0
SMALL
GASTEIGER

@<TRIPOS>ATOM
      1 C          59.8658   87.1610    8.9620 C.ar    1  UNL1        0.1424
      2 C          60.4614   86.3354   10.0638 C.ar    1  UNL1        0.0339
      3 C          61.4971   86.9305   10.9710 C.ar    1  UNL1       -0.0037
      4 C          61.9373   88.3512   10.7765 C.ar    1  UNL1        0.0515
      5 C          61.3418   89.1768    9.6748 C.ar    1  UNL1        0.0215
      6 C          60.3060   88.5817    8.7675 C.ar    1  UNL1        0.1065
      7 N          62.9691   88.6637   11.8195 N.am    1  UNL1       -0.2430
      8 C          63.6788   89.9738   11.9929 C.2     1  UNL1        0.3114
      9 O          63.3757   91.1186   11.0723 O.2     1  UNL1       -0.2519
     10 N          64.6916   90.1391   13.0869 N.am    1  UNL1       -0.2678
     11 C          63.1666   87.4362   12.6586 C.3     1  UNL1        0.1045
     12 C          62.2569   86.3650   12.1342 C.3     1  UNL1        0.0496
     13 H          64.8905   89.3877   13.6912 H       1  UNL1        0.1564
     14 C          65.4013   91.4492   13.2604 C.ar    1  UNL1        0.0546
     15 C          65.9265   91.8448   14.6086 C.ar    1  UNL1        0.0519
     16 C          66.6362   93.1549   14.7820 C.ar    1  UNL1        0.1480
     17 C          66.8207   94.0692   13.6072 C.ar    1  UNL1        0.0373
     18 C          66.2955   93.6735   12.2591 C.ar    1  UNL1        0.0057
     19 C          65.5858   92.3634   12.0857 C.ar    1  UNL1        0.0150
     20 C          66.4800   94.5878   11.0843 C.ar    1  UNL1        0.0193
     21 C          65.8160   95.9327   11.0691 C.ar    1  UNL1        0.0031
     22 C          66.0005   96.8470    9.8944 C.ar    1  UNL1        0.0207
     23 C          66.8490   96.4164    8.7349 C.ar    1  UNL1        0.0989
     24 N          67.5130   95.0714    8.7501 N.ar    1  UNL1       -0.2423
     25 C          67.3285   94.1571    9.9248 C.ar    1  UNL1        0.0988
     26 O          67.1614   93.5507   16.1301 O.3     1  UNL1       -0.4044
     27 C          68.6401   93.5764   16.3809 C.3     1  UNL1        0.5753
     28 F          70.1188   93.6022   16.6317 F       1  UNL1       -0.1328
     29 F          68.6018   92.1245   16.7559 F       1  UNL1       -0.1328
     30 F          68.6784   95.0283   16.0060 F       1  UNL1       -0.1328
     31 C          59.7105   89.4072    7.6659 C.3     1  UNL1        0.4214
     32 F          59.1150   90.2328    6.5642 F       1  UNL1       -0.1657
     33 F          59.2654   90.4277    8.6711 F       1  UNL1       -0.1657
     34 F          60.1555   88.3868    6.6606 F       1  UNL1       -0.1657
     35 C          59.2184   85.5066    7.0663 C.3     1  UNL1        0.2525
     36 O          58.8301   86.5658    8.0549 O.3     1  UNL1       -0.4715
@<TRIPOS>BOND
     1    35    36    1
     2    36     1    1
     3     1     2   ar
     4     2     3   ar
     5     3     4   ar
     6     4     5   ar
     7     5     6   ar
     8     6    31    1
     9    31    32    1
    10    31    33    1
    11    31    34    1
    12     4     7    1
    13     7     8   am
    14     8     9    2
    15     8    10   am
    16    10    14    1
    17    14    15   ar
    18    15    16   ar
    19    16    26    1
    20    26    27    1
    21    27    28    1
    22    27    29    1
    23    27    30    1
    24    16    17   ar
    25    17    18   ar
    26    18    20    1
    27    20    21   ar
    28    21    22   ar
    29    22    23   ar
    30    23    24   ar
    31    24    25   ar
    32    18    19   ar
    33     7    11    1
    34    11    12    1
    35     6     1   ar
    36    19    14   ar
    37    12     3    1
    38    25    20   ar
    39    10    13    1
@<TRIPOS>MOLECULE
*****
 36 39 0 0 0
SMALL
GASTEIGER

@<TRIPOS>ATOM
      1 C          62.7695   81.1167   13.1527 C.ar    1  UNL1        0.1424
      2 C          62.4800   81.5435   14.5613 C.ar    1  UNL1        0.0339
      3 C          62.6480   82.9799   14.9593 C.ar    1  UNL1       -0.0037
      4 C          63.1057   83.9896   13.9488 C.ar    1  UNL1        0.0515
      5 C          63.3952   83.5628   12.5402 C.ar    1  UNL1        0.0215
      6 C          63.2272   82.1263   12.1422 C.ar    1  UNL1        0.1065
      7 N          63.1804   85.3246   14.6285 N.am    1  UNL1       -0.2430
      8 C          63.5939   86.6173   13.9897 C.2     1  UNL1        0.3114
      9 O          63.9809   86.6478   12.5408 O.2     1  UNL1       -0.2519
     10 N          63.6205   87.8794   14.7998 N.am    1  UNL1       -0.2678
     11 C          62.7689   85.1401   16.0591 C.3     1  UNL1        0.1045
     12 C          62.4399   83.6910   16.2635 C.3     1  UNL1        0.0496
     13 H          63.3664   87.8594   15.7508 H       1  UNL1        0.1564
     14 C          64.0340   89.1721   14.1611 C.ar    1  UNL1        0.0546
     15 C          63.2575   89.7167   12.9990 C.ar    1  UNL1        0.0519
     16 C          63.6711   91.0094   12.3604 C.ar    1  UNL1        0.1480
     17 C          64.8612   91.7574   12.8838 C.ar    1  UNL1        0.0373
     18 C          65.6378   91.2129   14.0459 C.ar    1  UNL1        0.0057
     19 C          65.2241   89.9202   14.6845 C.ar    1  UNL1        0.0150
     20 C          66.8279   91.9610   14.5693 C.ar    1  UNL1        0.0193
     21 C          66.7274   92.7237   15.8571 C.ar    1  UNL1        0.0031
     22 C          67.9175   93.4717   16.3805 C.ar    1  UNL1        0.0207
     23 C          69.2081   93.4571   15.6162 C.ar    1  UNL1        0.0989
     24 N          69.3086   92.6945   14.3285 N.ar    1  UNL1       -0.2423
     25 C          68.1185   91.9464   13.8050 C.ar    1  UNL1        0.0988
     26 O          62.8946   91.5540   11.1983 O.3     1  UNL1       -0.4044
     27 C          62.0514   90.6363   10.3636 C.3     1  UNL1        0.5753
     28 F          61.2081   89.7185    9.5289 F       1  UNL1       -0.1328
     29 F          60.8166   91.1592   11.0360 F       1  UNL1       -0.1328
     30 F          63.2861   90.1134    9.6912 F       1  UNL1       -0.1328
     31 C          63.5167   81.6996   10.7337 C.3     1  UNL1        0.4214
     32 F          63.8063   81.2728    9.3251 F       1  UNL1       -0.1657
     33 F          62.3825   80.7202   10.7972 F       1  UNL1       -0.1657
     34 F          64.6510   82.6790   10.6701 F       1  UNL1       -0.1657
     35 C          61.9921   78.7023   13.7150 C.3     1  UNL1        0.2525
     36 O          62.6015   79.6803   12.7547 O.3     1  UNL1       -0.4715
@<TRIPOS>BOND
     1    35    36    1
     2    36     1    1
     3     1     2   ar
     4     2     3   ar
     5     3     4   ar
     6     4     5   ar
     7     5     6   ar
     8     6    31    1
     9    31    32    1
    10    31    33    1
    11    31    34    1
    12     4     7    1
    13     7     8   am
    14     8     9    2
    15     8    10   am
    16    10    14    1
    17    14    15   ar
    18    15    16   ar
    19    16    26    1
    20    26    27    1
    21    27    28    1
    22    27    29    1
    23    27    30    1
    24    16    17   ar
    25    17    18   ar
    26    18    20    1
    27    20    21   ar
    28    21    22   ar
    29    22    23   ar
    30    23    24   ar
    31    24    25   ar
    32    18    19   ar
    33     7    11    1
    34    11    12    1
    35     6     1   ar
    36    19    14   ar
    37    12     3    1
    38    25    20   ar
    39    10    13    1
@<TRIPOS>MOLECULE
*****
 36 39 0 0 0
SMALL
GASTEIGER

@<TRIPOS>ATOM
      1 C          63.6649   81.7953   14.1122 C.ar    1  UNL1        0.1424
      2 C          63.9513   82.6426   15.3164 C.ar    1  UNL1        0.0339
      3 C          63.9679   84.1376   15.1947 C.ar    1  UNL1       -0.0037
      4 C          63.6981   84.7852   13.8689 C.ar    1  UNL1        0.0515
      5 C          63.4117   83.9379   12.6648 C.ar    1  UNL1        0.0215
      6 C          63.3951   82.4429   12.7864 C.ar    1  UNL1        0.1065
      7 N          63.7811   86.2715   14.0537 N.am    1  UNL1       -0.2430
      8 C          63.5786   87.3053   12.9859 C.2     1  UNL1        0.3114
      9 O          63.2610   86.8817   11.5824 O.2     1  UNL1       -0.2519
     10 N          63.6936   88.7627   13.3215 N.am    1  UNL1       -0.2678
     11 C          64.1022   86.5424   15.4936 C.3     1  UNL1        0.1045
     12 C          64.2177   85.2236   16.1988 C.3     1  UNL1        0.0496
     13 H          63.9020   89.0407   14.2427 H       1  UNL1        0.1564
     14 C          63.4910   89.7966   12.2538 C.ar    1  UNL1        0.0546
     15 C          62.2284   89.8011   11.4440 C.ar    1  UNL1        0.0519
     16 C          62.0259   90.8351   10.3763 C.ar    1  UNL1        0.1480
     17 C          63.0861   91.8644   10.1184 C.ar    1  UNL1        0.0373
     18 C          64.3487   91.8599   10.9282 C.ar    1  UNL1        0.0057
     19 C          64.5512   90.8260   11.9959 C.ar    1  UNL1        0.0150
     20 C          65.4088   92.8893   10.6702 C.ar    1  UNL1        0.0193
     21 C          65.0771   94.3488   10.7697 C.ar    1  UNL1        0.0031
     22 C          66.1373   95.3781   10.5118 C.ar    1  UNL1        0.0207
     23 C          67.5291   94.9480   10.1544 C.ar    1  UNL1        0.0989
     24 N          67.8608   93.4885   10.0549 N.ar    1  UNL1       -0.2423
     25 C          66.8007   92.4591   10.3128 C.ar    1  UNL1        0.0988
     26 O          60.7634   90.8397    9.5665 O.3     1  UNL1       -0.4044
     27 C          59.9743   89.5748    9.4004 C.3     1  UNL1        0.5753
     28 F          59.1852   88.3099    9.2343 F       1  UNL1       -0.1328
     29 F          59.3734   89.7710   10.7608 F       1  UNL1       -0.1328
     30 F          60.5752   89.3786    8.0401 F       1  UNL1       -0.1328
     31 C          63.1087   81.5956   11.5822 C.3     1  UNL1        0.4214
     32 F          62.8223   80.7483   10.3781 F       1  UNL1       -0.1657
     33 F          61.6973   81.4042   12.0526 F       1  UNL1       -0.1657
     34 F          64.5201   81.7871   11.1118 F       1  UNL1       -0.1657
     35 C          62.3483   79.5560   14.1578 C.3     1  UNL1        0.2525
     36 O          63.6483   80.3003   14.2338 O.3     1  UNL1       -0.4715
@<TRIPOS>BOND
     1    35    36    1
     2    36     1    1
     3     1     2   ar
     4     2     3   ar
     5     3     4   ar
     6     4     5   ar
     7     5     6   ar
     8     6    31    1
     9    31    32    1
    10    31    33    1
    11    31    34    1
    12     4     7    1
    13     7     8   am
    14     8     9    2
    15     8    10   am
    16    10    14    1
    17    14    15   ar
    18    15    16   ar
    19    16    26    1
    20    26    27    1
    21    27    28    1
    22    27    29    1
    23    27    30    1
    24    16    17   ar
    25    17    18   ar
    26    18    20    1
    27    20    21   ar
    28    21    22   ar
    29    22    23   ar
    30    23    24   ar
    31    24    25   ar
    32    18    19   ar
    33     7    11    1
    34    11    12    1
    35     6     1   ar
    36    19    14   ar
    37    12     3    1
    38    25    20   ar
    39    10    13    1
@<TRIPOS>MOLECULE
*****
 36 39 0 0 0
SMALL
GASTEIGER

@<TRIPOS>ATOM
      1 C          61.1909   85.5319    7.5708 C.ar    1  UNL1        0.1424
      2 C          60.3860   86.7975    7.5440 C.ar    1  UNL1        0.0339
      3 C          60.5549   87.8168    8.6314 C.ar    1  UNL1       -0.0037
      4 C          61.5287   87.5707    9.7455 C.ar    1  UNL1        0.0515
      5 C          62.3335   86.3052    9.7723 C.ar    1  UNL1        0.0215
      6 C          62.1647   85.2858    8.6849 C.ar    1  UNL1        0.1065
      7 N          61.4803   88.7493   10.6721 N.am    1  UNL1       -0.2430
      8 C          62.2930   88.9228   11.9209 C.2     1  UNL1        0.3114
      9 O          63.2623   87.8572   12.3391 O.2     1  UNL1       -0.2519
     10 N          62.1363   90.1620   12.7515 N.am    1  UNL1       -0.2678
     11 C          60.4768   89.7238   10.1307 C.3     1  UNL1        0.1045
     12 C          59.9048   89.1475    8.8695 C.3     1  UNL1        0.0496
     13 H          61.5001   90.8614   12.4770 H       1  UNL1        0.1564
     14 C          62.9489   90.3356   14.0004 C.ar    1  UNL1        0.0546
     15 C          62.5908   89.5716   15.2405 C.ar    1  UNL1        0.0519
     16 C          63.4034   89.7453   16.4893 C.ar    1  UNL1        0.1480
     17 C          64.5742   90.6830   16.4979 C.ar    1  UNL1        0.0373
     18 C          64.9323   91.4470   15.2578 C.ar    1  UNL1        0.0057
     19 C          64.1197   91.2733   14.0090 C.ar    1  UNL1        0.0150
     20 C          66.1031   92.3847   15.2663 C.ar    1  UNL1        0.0193
     21 C          67.1309   92.2911   16.3548 C.ar    1  UNL1        0.0031
     22 C          68.3017   93.2288   16.3634 C.ar    1  UNL1        0.0207
     23 C          68.4446   94.2600   15.2835 C.ar    1  UNL1        0.0989
     24 N          67.4167   94.3536   14.1951 N.ar    1  UNL1       -0.2423
     25 C          66.2460   93.4159   14.1865 C.ar    1  UNL1        0.0988
     26 O          63.0453   88.9813   17.7295 O.3     1  UNL1       -0.4044
     27 C          63.0774   87.4817   17.7220 C.3     1  UNL1        0.5753
     28 F          63.1096   85.9820   17.7145 F       1  UNL1       -0.1328
     29 F          62.6533   87.4654   19.1608 F       1  UNL1       -0.1328
     30 F          63.5016   87.4979   16.2833 F       1  UNL1       -0.1328
     31 C          62.9695   84.0204    8.7116 C.3     1  UNL1        0.4214
     32 F          63.7743   82.7549    8.7384 F       1  UNL1       -0.1657
     33 F          62.4410   83.7132   10.0814 F       1  UNL1       -0.1657
     34 F          63.4980   84.3275    7.3419 F       1  UNL1       -0.1657
     35 C          61.8943   84.5649    5.2642 C.3     1  UNL1        0.2525
     36 O          61.0220   84.5126    6.4834 O.3     1  UNL1       -0.4715
@<TRIPOS>BOND
     1    35    36    1
     2    36     1    1
     3     1     2   ar
     4     2     3   ar
     5     3     4   ar
     6     4     5   ar
     7     5     6   ar
     8     6    31    1
     9    31    32    1
    10    31    33    1
    11    31    34    1
    12     4     7    1
    13     7     8   am
    14     8     9    2
    15     8    10   am
    16    10    14    1
    17    14    15   ar
    18    15    16   ar
    19    16    26    1
    20    26    27    1
    21    27    28    1
    22    27    29    1
    23    27    30    1
    24    16    17   ar
    25    17    18   ar
    26    18    20    1
    27    20    21   ar
    28    21    22   ar
    29    22    23   ar
    30    23    24   ar
    31    24    25   ar
    32    18    19   ar
    33     7    11    1
    34    11    12    1
    35     6     1   ar
    36    19    14   ar
    37    12     3    1
    38    25    20   ar
    39    10    13    1
@<TRIPOS>MOLECULE
*****
 36 39 0 0 0
SMALL
GASTEIGER

@<TRIPOS>ATOM
      1 C          62.6085   82.6095   14.3892 C.ar    1  UNL1        0.1424
      2 C          62.2742   83.2623   15.6977 C.ar    1  UNL1        0.0339
      3 C          62.6197   84.7039   15.9265 C.ar    1  UNL1       -0.0037
      4 C          63.2995   85.4927   14.8468 C.ar    1  UNL1        0.0515
      5 C          63.6338   84.8399   13.5384 C.ar    1  UNL1        0.0215
      6 C          63.2883   83.3982   13.3096 C.ar    1  UNL1        0.1065
      7 N          63.5158   86.8865   15.3573 N.am    1  UNL1       -0.2430
      8 C          64.1643   88.0103   14.6047 C.2     1  UNL1        0.3114
      9 O          64.6652   87.7874   13.2085 O.2     1  UNL1       -0.2519
     10 N          64.3121   89.3571   15.2484 N.am    1  UNL1       -0.2678
     11 C          62.9697   86.9591   16.7525 C.3     1  UNL1        0.1045
     12 C          62.4159   85.6102   17.1042 C.3     1  UNL1        0.0496
     13 H          63.9834   89.5034   16.1648 H       1  UNL1        0.1564
     14 C          64.9606   90.4810   14.4959 C.ar    1  UNL1        0.0546
     15 C          64.3812   90.9432   13.1918 C.ar    1  UNL1        0.0519
     16 C          65.0298   92.0671   12.4393 C.ar    1  UNL1        0.1480
     17 C          66.2578   92.7288   12.9910 C.ar    1  UNL1        0.0373
     18 C          66.8372   92.2666   14.2951 C.ar    1  UNL1        0.0057
     19 C          66.1885   91.1427   15.0475 C.ar    1  UNL1        0.0150
     20 C          68.0651   92.9283   14.8467 C.ar    1  UNL1        0.0193
     21 C          67.9476   93.8965   15.9864 C.ar    1  UNL1        0.0031
     22 C          69.1755   94.5582   16.5381 C.ar    1  UNL1        0.0207
     23 C          70.5209   94.2517   15.9500 C.ar    1  UNL1        0.0989
     24 N          70.6385   93.2835   14.8104 N.ar    1  UNL1       -0.2423
     25 C          69.4105   92.6218   14.2587 C.ar    1  UNL1        0.0988
     26 O          64.4505   92.5293   11.1352 O.3     1  UNL1       -0.4044
     27 C          65.3166   93.2453   10.1416 C.3     1  UNL1        0.5753
     28 F          66.1827   93.9613    9.1480 F       1  UNL1       -0.1328
     29 F          66.0598   91.9707    9.8710 F       1  UNL1       -0.1328
     30 F          64.5734   94.5198   10.4122 F       1  UNL1       -0.1328
     31 C          63.6225   82.7454   12.0011 C.3     1  UNL1        0.4214
     32 F          63.9568   82.0926   10.6927 F       1  UNL1       -0.1657
     33 F          62.3455   83.2689   11.4137 F       1  UNL1       -0.1657
     34 F          64.8995   82.2219   12.5885 F       1  UNL1       -0.1657
     35 C          60.8306   80.7243   14.2015 C.3     1  UNL1        0.2525
     36 O          62.2629   81.1679   14.1605 O.3     1  UNL1       -0.4715
@<TRIPOS>BOND
     1    35    36    1
     2    36     1    1
     3     1     2   ar
     4     2     3   ar
     5     3     4   ar
     6     4     5   ar
     7     5     6   ar
     8     6    31    1
     9    31    32    1
    10    31    33    1
    11    31    34    1
    12     4     7    1
    13     7     8   am
    14     8     9    2
    15     8    10   am
    16    10    14    1
    17    14    15   ar
    18    15    16   ar
    19    16    26    1
    20    26    27    1
    21    27    28    1
    22    27    29    1
    23    27    30    1
    24    16    17   ar
    25    17    18   ar
    26    18    20    1
    27    20    21   ar
    28    21    22   ar
    29    22    23   ar
    30    23    24   ar
    31    24    25   ar
    32    18    19   ar
    33     7    11    1
    34    11    12    1
    35     6     1   ar
    36    19    14   ar
    37    12     3    1
    38    25    20   ar
    39    10    13    1
