@<TRIPOS>MOLECULE
*****
 34 37 0 0 0
SMALL
GASTEIGER

@<TRIPOS>ATOM
      1 N          62.9382   90.6694   11.7144 N.am    1  UNL1       -0.2438
      2 C          63.5364   91.2219   10.4547 C.3     1  UNL1        0.1009
      3 C          64.7166   92.1450   10.5269 C.3     1  UNL1        0.0661
      4 C          65.2985   92.5155   11.8588 C.3     1  UNL1        0.1579
      5 O          64.7003   91.9630   13.1186 O.3     1  UNL1       -0.4375
      6 C          63.5202   91.0399   13.0464 C.2     1  UNL1        0.4051
      7 O          62.9220   90.4874   14.3061 O.2     1  UNL1       -0.2262
      8 C          66.2086   93.2902   10.9523 C.ar    1  UNL1        0.0160
      9 C          66.1190   94.7866   10.9002 C.ar    1  UNL1       -0.0008
     10 C          67.0291   95.5613    9.9937 C.ar    1  UNL1        0.0021
     11 C          68.0287   94.8394    9.1394 C.ar    1  UNL1        0.0296
     12 C          68.1183   93.3430    9.1916 C.ar    1  UNL1        0.1399
     13 F          69.1179   92.6213    8.3373 F       1  UNL1       -0.2042
     14 C          67.2082   92.5684   10.0981 C.ar    1  UNL1        0.0287
     15 C          60.3697   90.3086   11.5640 C.3     1  UNL1        0.0265
     16 C          61.7581   89.7463   11.6422 C.3     1  UNL1        0.1011
     17 C          61.9664   88.2608   11.6481 C.ar    1  UNL1       -0.0042
     18 C          61.1058   87.3793   10.7924 C.ar    1  UNL1       -0.0027
     19 C          61.3141   85.8939   10.7984 C.ar    1  UNL1       -0.0003
     20 C          62.3830   85.2899   11.6601 C.ar    1  UNL1       -0.0000
     21 C          63.2437   86.1714   12.5158 C.ar    1  UNL1       -0.0003
     22 C          63.0354   87.6568   12.5098 C.ar    1  UNL1       -0.0027
     23 C          62.5913   83.8044   11.6661 C.ar    1  UNL1        0.0001
     24 C          62.1829   82.9946   12.8608 C.ar    1  UNL1        0.0023
     25 C          62.3912   81.5091   12.8667 C.ar    1  UNL1        0.0296
     26 C          63.0079   80.8335   11.6779 C.ar    1  UNL1        0.1401
     27 F          63.2162   79.3481   11.6838 F       1  UNL1       -0.2042
     28 C          63.4163   81.6434   10.4832 C.ar    1  UNL1        0.0296
     29 C          63.2080   83.1288   10.4773 C.ar    1  UNL1        0.0023
     30 C          66.1965   93.1551   12.8759 C.3     1  UNL1        0.0471
     31 C          66.6432   92.3762   14.0775 C.3     1  UNL1        0.0357
     32 C          68.0908   92.0206   14.2451 C.3     1  UNL1        0.1373
     33 O          68.9151   91.6486   13.0485 O.3     1  UNL1       -0.3820
     34 H          68.5857   90.8162   12.6750 H       1  UNL1        0.2104
@<TRIPOS>BOND
     1    16    15    1
     2    16    17    1
     3    17    18   ar
     4    18    19   ar
     5    19    20   ar
     6    20    23    1
     7    23    24   ar
     8    24    25   ar
     9    25    26   ar
    10    26    27    1
    11    26    28   ar
    12    28    29   ar
    13    20    21   ar
    14    21    22   ar
    15    16     1    1
    16     1     2    1
    17     2     3    1
    18     3     4    1
    19     4    30    1
    20    30    31    1
    21    31    32    1
    22    32    33    1
    23     4     8    1
    24     8     9   ar
    25     9    10   ar
    26    10    11   ar
    27    11    12   ar
    28    12    13    1
    29    12    14   ar
    30     4     5    1
    31     5     6    1
    32     6     7    2
    33    22    17   ar
    34     6     1   am
    35    29    23   ar
    36    14     8   ar
    37    33    34    1
@<TRIPOS>MOLECULE
*****
 34 37 0 0 0
SMALL
GASTEIGER

@<TRIPOS>ATOM
      1 N          63.2493   90.3126   12.0276 N.am    1  UNL1       -0.2438
      2 C          63.9452   90.2195   13.3531 C.3     1  UNL1        0.1009
      3 C          65.1386   91.0831   13.6360 C.3     1  UNL1        0.0661
      4 C          65.6361   92.0398   12.5933 C.3     1  UNL1        0.1579
      5 O          64.9402   92.1329   11.2677 O.3     1  UNL1       -0.4375
      6 C          63.7468   91.2693   10.9849 C.2     1  UNL1        0.4051
      7 O          63.0509   91.3624    9.6594 O.2     1  UNL1       -0.2262
      8 C          66.6239   92.3118   13.6889 C.ar    1  UNL1        0.0160
      9 C          66.1417   92.7219   15.0488 C.ar    1  UNL1       -0.0008
     10 C          67.1296   92.9938   16.1443 C.ar    1  UNL1        0.0021
     11 C          68.5996   92.8557   15.8800 C.ar    1  UNL1        0.0296
     12 C          69.0818   92.4456   14.5201 C.ar    1  UNL1        0.1399
     13 F          70.5518   92.3074   14.2558 F       1  UNL1       -0.2042
     14 C          68.0940   92.1736   13.4245 C.ar    1  UNL1        0.0287
     15 C          60.7219   90.0787   11.4732 C.3     1  UNL1        0.0265
     16 C          62.0559   89.4490   11.7448 C.3     1  UNL1        0.1011
     17 C          62.1966   87.9556   11.7335 C.ar    1  UNL1       -0.0042
     18 C          63.1061   87.2805   12.7169 C.ar    1  UNL1       -0.0027
     19 C          63.2468   85.7872   12.7056 C.ar    1  UNL1       -0.0003
     20 C          62.4779   84.9690   11.7110 C.ar    1  UNL1       -0.0000
     21 C          61.5683   85.6440   10.7277 C.ar    1  UNL1       -0.0003
     22 C          61.4277   87.1373   10.7390 C.ar    1  UNL1       -0.0027
     23 C          62.6185   83.4756   11.6998 C.ar    1  UNL1        0.0001
     24 C          63.1310   82.7797   10.4737 C.ar    1  UNL1        0.0023
     25 C          63.2716   81.2863   10.4625 C.ar    1  UNL1        0.0296
     26 C          62.8999   80.4888   11.6773 C.ar    1  UNL1        0.1401
     27 F          63.0405   78.9955   11.6661 F       1  UNL1       -0.2042
     28 C          62.3874   81.1848   12.9034 C.ar    1  UNL1        0.0296
     29 C          62.2468   82.6781   12.9146 C.ar    1  UNL1        0.0023
     30 C          66.4767   93.0910   11.9311 C.3     1  UNL1        0.0471
     31 C          66.6551   93.0803   10.4418 C.3     1  UNL1        0.0357
     32 C          67.9131   92.5264    9.8411 C.3     1  UNL1        0.1373
     33 O          69.1585   93.3617    9.8063 O.3     1  UNL1       -0.3820
     34 H          69.0208   94.1232    9.2214 H       1  UNL1        0.2104
@<TRIPOS>BOND
     1    16    15    1
     2    16    17    1
     3    17    18   ar
     4    18    19   ar
     5    19    20   ar
     6    20    23    1
     7    23    24   ar
     8    24    25   ar
     9    25    26   ar
    10    26    27    1
    11    26    28   ar
    12    28    29   ar
    13    20    21   ar
    14    21    22   ar
    15    16     1    1
    16     1     2    1
    17     2     3    1
    18     3     4    1
    19     4    30    1
    20    30    31    1
    21    31    32    1
    22    32    33    1
    23     4     8    1
    24     8     9   ar
    25     9    10   ar
    26    10    11   ar
    27    11    12   ar
    28    12    13    1
    29    12    14   ar
    30     4     5    1
    31     5     6    1
    32     6     7    2
    33    22    17   ar
    34     6     1   am
    35    29    23   ar
    36    14     8   ar
    37    33    34    1
@<TRIPOS>MOLECULE
*****
 34 37 0 0 0
SMALL
GASTEIGER

@<TRIPOS>ATOM
      1 N          62.1246   88.3003   11.2533 N.am    1  UNL1       -0.2438
      2 C          62.6441   87.2165   12.1508 C.3     1  UNL1        0.1009
      3 C          62.7807   85.8153   11.6332 C.3     1  UNL1        0.0661
      4 C          62.3978   85.4978   10.2181 C.3     1  UNL1        0.1579
      5 O          61.8782   86.5816    9.3205 O.3     1  UNL1       -0.4375
      6 C          61.7416   87.9828    9.8382 C.2     1  UNL1        0.4051
      7 O          61.2221   89.0666    8.9407 O.2     1  UNL1       -0.2262
      8 C          62.8373   84.1400   10.6798 C.ar    1  UNL1        0.0160
      9 C          63.8656   83.3783    9.8973 C.ar    1  UNL1       -0.0008
     10 C          64.3052   82.0204   10.3590 C.ar    1  UNL1        0.0021
     11 C          63.7164   81.4245   11.6032 C.ar    1  UNL1        0.0296
     12 C          62.6881   82.1862   12.3858 C.ar    1  UNL1        0.1399
     13 F          62.0995   81.5902   13.6300 F       1  UNL1       -0.2042
     14 C          62.2486   83.5440   11.9241 C.ar    1  UNL1        0.0287
     15 C          60.6962   90.4433   11.5954 C.3     1  UNL1        0.0265
     16 C          61.9880   89.7015   11.7710 C.3     1  UNL1        0.1011
     17 C          63.1434   90.3609   12.4642 C.ar    1  UNL1       -0.0042
     18 C          63.9387   91.4175   11.7565 C.ar    1  UNL1       -0.0027
     19 C          65.0939   92.0769   12.4498 C.ar    1  UNL1       -0.0003
     20 C          65.4539   91.6795   13.8507 C.ar    1  UNL1       -0.0000
     21 C          64.6585   90.6229   14.5584 C.ar    1  UNL1       -0.0003
     22 C          63.5033   89.9635   13.8651 C.ar    1  UNL1       -0.0027
     23 C          66.6092   92.3389   14.5440 C.ar    1  UNL1        0.0001
     24 C          67.5739   91.5143   15.3435 C.ar    1  UNL1        0.0023
     25 C          68.7292   92.1736   16.0368 C.ar    1  UNL1        0.0296
     26 C          68.9197   93.6577   15.9304 C.ar    1  UNL1        0.1401
     27 F          70.0750   94.3171   16.6236 F       1  UNL1       -0.2042
     28 C          67.9550   94.4823   15.1308 C.ar    1  UNL1        0.0296
     29 C          66.7997   93.8229   14.4376 C.ar    1  UNL1        0.0023
     30 C          62.1675   84.7088    8.9633 C.3     1  UNL1        0.0471
     31 C          62.3714   85.3530    7.6242 C.3     1  UNL1        0.0357
     32 C          62.2412   84.5376    6.3719 C.3     1  UNL1        0.1373
     33 O          60.8832   84.1444    5.8708 O.3     1  UNL1       -0.3820
     34 H          60.4682   83.5376    6.5036 H       1  UNL1        0.2104
@<TRIPOS>BOND
     1    16    15    1
     2    16    17    1
     3    17    18   ar
     4    18    19   ar
     5    19    20   ar
     6    20    23    1
     7    23    24   ar
     8    24    25   ar
     9    25    26   ar
    10    26    27    1
    11    26    28   ar
    12    28    29   ar
    13    20    21   ar
    14    21    22   ar
    15    16     1    1
    16     1     2    1
    17     2     3    1
    18     3     4    1
    19     4    30    1
    20    30    31    1
    21    31    32    1
    22    32    33    1
    23     4     8    1
    24     8     9   ar
    25     9    10   ar
    26    10    11   ar
    27    11    12   ar
    28    12    13    1
    29    12    14   ar
    30     4     5    1
    31     5     6    1
    32     6     7    2
    33    22    17   ar
    34     6     1   am
    35    29    23   ar
    36    14     8   ar
    37    33    34    1
