@<TRIPOS>MOLECULE
*****
 57 60 0 0 0
SMALL
GASTEIGER

@<TRIPOS>ATOM
      1 C          62.1284   88.1182   10.8899 C.3     1  UNL1        0.0760
      2 C          60.4321   88.9551    9.1089 C.2     1  UNL1        0.2404
      3 O          60.0509   90.0942   10.0072 O.2     1  UNL1       -0.2733
      4 N          61.4709   87.9671    9.5502 N.am    1  UNL1       -0.3043
      5 H          61.7211   87.2194    8.9606 H       1  UNL1        0.1494
      6 C          59.7745   88.8040    7.7692 C.3     1  UNL1        0.1511
      7 N          58.5942   91.4969    5.1037 N.am    1  UNL1       -0.2567
      8 C          57.3367   91.9305    4.4103 C.3     1  UNL1        0.1168
      9 C          58.5557   90.3673    6.0897 C.2     1  UNL1        0.3046
     10 O          57.2596   89.6712    6.3825 O.2     1  UNL1       -0.2526
     11 N          59.8131   89.9337    6.7831 N.am    1  UNL1       -0.2824
     12 H          60.6638   90.3906    6.5909 H       1  UNL1        0.1514
     13 C          59.8902   92.1930    4.8109 C.3     1  UNL1        0.1413
     14 C          60.1931   93.0904    1.0468 C.ar    1  UNL1        0.0875
     15 N          59.3775   92.9432    2.2970 N.ar    1  UNL1       -0.2453
     16 C          60.2881   92.4715    3.3917 C.ar    1  UNL1        0.0858
     17 C          61.6666   92.3273    2.8180 C.ar    1  UNL1        0.0530
     18 S          61.6079   92.7098    1.3688 S.2     1  UNL1       -0.0705
     19 C          58.3184   94.1505   -0.4065 C.3     1  UNL1        0.0069
     20 C          59.6834   93.5395   -0.2906 C.3     1  UNL1        0.0465
     21 C          60.5388   93.3776   -1.5121 C.3     1  UNL1        0.0069
     22 C          59.0784   87.5233    7.4156 C.3     1  UNL1        0.0478
     23 C          59.5953   86.2180    7.9440 C.3     1  UNL1        0.0933
     24 N          59.9424   85.1094    6.9952 N.3     1  UNL1       -0.1832
     25 H          59.4635   85.3122    6.1177 H       1  UNL1        0.1484
     26 S          61.3771   84.8369    6.6527 S.O2    1  UNL1        0.0426
     27 C          62.8118   84.5645    6.3101 C.3     1  UNL1        0.1957
     28 O          61.8134   85.8188    7.6993 O.2     1  UNL1       -0.1575
     29 O          60.9408   83.8551    5.6060 O.2     1  UNL1       -0.1575
     30 C          62.0080   87.0268   11.9119 C.3     1  UNL1        0.0459
     31 C          62.6946   85.7118   11.6893 C.ar    1  UNL1       -0.0205
     32 C          63.2826   84.9666   12.8508 C.ar    1  UNL1       -0.0042
     33 C          63.9692   83.6517   12.6282 C.ar    1  UNL1       -0.0003
     34 C          64.0679   83.0820   11.2441 C.ar    1  UNL1       -0.0000
     35 C          63.4800   83.8272   10.0826 C.ar    1  UNL1       -0.0003
     36 C          62.7934   85.1421   10.3052 C.ar    1  UNL1       -0.0042
     37 C          62.9063   89.3607   11.2077 C.3     1  UNL1        0.0216
     38 C          62.6807   90.0750   12.5073 C.3     1  UNL1        0.0217
     39 C          63.8280   90.7442   13.2044 C.3     1  UNL1        0.0792
     40 N          64.8000   91.5754   12.4206 N.am    1  UNL1       -0.2720
     41 C          65.7046   92.5394   13.1294 C.2     1  UNL1        0.4019
     42 O          65.6372   92.6722   14.6219 O.2     1  UNL1       -0.2264
     43 H          64.8442   91.4882   11.4409 H       1  UNL1        0.1527
     44 O          66.6766   93.3706   12.3456 O.3     1  UNL1       -0.4291
     45 C          66.2935   94.7499   11.8979 C.3     1  UNL1        0.2447
     46 C          66.6091   95.2002   10.5023 C.ar    1  UNL1        0.0714
     47 C          66.3795   96.5742    9.9460 C.ar    1  UNL1        0.1053
     48 N          66.8382   96.5787    8.5178 N.ar    1  UNL1       -0.2350
     49 C          67.3512   95.2075    8.1914 C.ar    1  UNL1        0.1343
     50 S          67.2096   94.3555    9.4179 S.2     1  UNL1       -0.0652
     51 C          64.0032   90.5822   14.6852 C.3     1  UNL1        0.0460
     52 C          63.8368   89.2319   15.3170 C.ar    1  UNL1       -0.0205
     53 C          63.0658   89.0921   16.5959 C.ar    1  UNL1       -0.0042
     54 C          62.8994   87.7418   17.2276 C.ar    1  UNL1       -0.0003
     55 C          63.5042   86.5313   16.5802 C.ar    1  UNL1       -0.0000
     56 C          64.2752   86.6711   15.3012 C.ar    1  UNL1       -0.0003
     57 C          64.4416   88.0214   14.6696 C.ar    1  UNL1       -0.0042
@<TRIPOS>BOND
     1    19    20    1
     2    20    21    1
     3    20    14    1
     4    14    15   ar
     5    15    16   ar
     6    16    13    1
     7    13     7    1
     8     7     8    1
     9     7     9   am
    10     9    10    2
    11     9    11   am
    12    11     6    1
    13     6    22    1
    14    22    23    1
    15    23    24    1
    16    24    26    1
    17    26    27    1
    18    26    28    2
    19    26    29    2
    20     6     2    1
    21     2     3    2
    22     2     4   am
    23     4     1    1
    24     1    37    1
    25    37    38    1
    26    39    38    1
    27    39    51    1
    28    51    52    1
    29    52    53   ar
    30    53    54   ar
    31    54    55   ar
    32    55    56   ar
    33    56    57   ar
    34    39    40    1
    35    40    41   am
    36    41    42    2
    37    41    44    1
    38    44    45    1
    39    45    46    1
    40    46    47   ar
    41    47    48   ar
    42    48    49   ar
    43    49    50   ar
    44     1    30    1
    45    30    31    1
    46    31    32   ar
    47    32    33   ar
    48    33    34   ar
    49    34    35   ar
    50    35    36   ar
    51    16    17   ar
    52    17    18   ar
    53    18    14   ar
    54    57    52   ar
    55    50    46   ar
    56    36    31   ar
    57    11    12    1
    58    24    25    1
    59     4     5    1
    60    40    43    1
@<TRIPOS>MOLECULE
*****
 57 60 0 0 0
SMALL
GASTEIGER

@<TRIPOS>ATOM
      1 C          62.7582   87.1557   12.0759 C.3     1  UNL1        0.0760
      2 C          61.9241   89.4077   11.0844 C.2     1  UNL1        0.2404
      3 O          61.2062   89.7065   12.3671 O.2     1  UNL1       -0.2733
      4 N          62.7001   88.1323   10.9388 N.am    1  UNL1       -0.3043
      5 H          63.1713   87.9361   10.0969 H       1  UNL1        0.1494
      6 C          61.8660   90.3843    9.9473 C.3     1  UNL1        0.1511
      7 N          59.3491   88.7749    7.3348 N.am    1  UNL1       -0.2567
      8 C          58.9700   87.4213    6.8114 C.3     1  UNL1        0.1168
      9 C          60.4180   88.9028    8.3793 C.2     1  UNL1        0.3046
     10 O          61.1079   87.6770    8.9004 O.2     1  UNL1       -0.2526
     11 N          60.7970   90.2564    8.9028 N.am    1  UNL1       -0.2824
     12 H          60.3442   91.0609    8.5608 H       1  UNL1        0.1514
     13 C          58.6592   90.0007    6.8138 C.3     1  UNL1        0.1413
     14 C          60.8430   91.6094    4.0374 C.ar    1  UNL1        0.0875
     15 N          60.6686   90.6450    5.1729 N.ar    1  UNL1       -0.2453
     16 C          59.2640   90.7779    5.6823 C.ar    1  UNL1        0.0858
     17 C          58.5704   91.8245    4.8616 C.ar    1  UNL1        0.0530
     18 S          59.5462   92.3384    3.8449 S.2     1  UNL1       -0.0705
     19 C          62.2072   92.9773    2.3002 C.3     1  UNL1        0.0069
     20 C          62.0945   91.8098    3.2351 C.3     1  UNL1        0.0465
     21 C          63.2333   90.8425    3.3677 C.3     1  UNL1        0.0069
     22 C          62.8768   91.4886    9.8548 C.3     1  UNL1        0.0478
     23 C          64.0262   91.5359   10.8174 C.3     1  UNL1        0.0933
     24 N          64.6004   92.8570   11.2355 N.3     1  UNL1       -0.1832
     25 H          64.8282   92.7787   12.2266 H       1  UNL1        0.1484
     26 S          65.8227   93.3938   10.5514 S.O2    1  UNL1        0.0426
     27 C          67.0450   93.9305    9.8674 C.3     1  UNL1        0.1957
     28 O          66.3914   92.0076   10.4798 O.2     1  UNL1       -0.1575
     29 O          65.2541   94.7800   10.6231 O.2     1  UNL1       -0.1575
     30 C          61.9870   85.8712   12.0014 C.3     1  UNL1        0.0459
     31 C          62.6322   84.6408   11.4358 C.ar    1  UNL1       -0.0205
     32 C          62.6031   83.3557   12.2090 C.ar    1  UNL1       -0.0042
     33 C          63.2483   82.1254   11.6434 C.ar    1  UNL1       -0.0003
     34 C          63.9226   82.1801   10.3046 C.ar    1  UNL1       -0.0000
     35 C          63.9517   83.4651    9.5314 C.ar    1  UNL1       -0.0003
     36 C          63.3065   84.6955   10.0970 C.ar    1  UNL1       -0.0042
     37 C          63.5873   87.4636   13.2873 C.3     1  UNL1        0.0216
     38 C          64.2572   88.7993   13.4179 C.3     1  UNL1        0.0217
     39 C          64.2921   89.4942   14.7468 C.3     1  UNL1        0.0792
     40 N          64.2047   88.6953   16.0134 N.am    1  UNL1       -0.2720
     41 C          62.9022   88.5993   16.7512 C.2     1  UNL1        0.4019
     42 O          61.6872   89.3022   16.2225 O.2     1  UNL1       -0.2264
     43 H          65.0022   88.2339   16.3604 H       1  UNL1        0.1527
     44 O          62.8148   87.8004   18.0178 O.3     1  UNL1       -0.4291
     45 C          62.4653   86.3428   17.9625 C.3     1  UNL1        0.2447
     46 C          62.9580   85.4960   16.8266 C.ar    1  UNL1        0.0714
     47 C          64.3610   85.4607   16.2971 C.ar    1  UNL1        0.1053
     48 N          64.4042   84.4787   15.1640 N.ar    1  UNL1       -0.2350
     49 C          63.0280   83.9071   14.9932 C.ar    1  UNL1        0.1343
     50 S          62.1342   84.5358   16.0208 S.2     1  UNL1       -0.0652
     51 C          64.4143   90.9878   14.8092 C.3     1  UNL1        0.0460
     52 C          65.7677   91.6258   14.9166 C.ar    1  UNL1       -0.0205
     53 C          66.1037   92.4764   16.1054 C.ar    1  UNL1       -0.0042
     54 C          67.4570   93.1143   16.2127 C.ar    1  UNL1       -0.0003
     55 C          68.4744   92.9015   15.1312 C.ar    1  UNL1       -0.0000
     56 C          68.1384   92.0509   13.9423 C.ar    1  UNL1       -0.0003
     57 C          66.7851   91.4130   13.8350 C.ar    1  UNL1       -0.0042
@<TRIPOS>BOND
     1    19    20    1
     2    20    21    1
     3    20    14    1
     4    14    15   ar
     5    15    16   ar
     6    16    13    1
     7    13     7    1
     8     7     8    1
     9     7     9   am
    10     9    10    2
    11     9    11   am
    12    11     6    1
    13     6    22    1
    14    22    23    1
    15    23    24    1
    16    24    26    1
    17    26    27    1
    18    26    28    2
    19    26    29    2
    20     6     2    1
    21     2     3    2
    22     2     4   am
    23     4     1    1
    24     1    37    1
    25    37    38    1
    26    39    38    1
    27    39    51    1
    28    51    52    1
    29    52    53   ar
    30    53    54   ar
    31    54    55   ar
    32    55    56   ar
    33    56    57   ar
    34    39    40    1
    35    40    41   am
    36    41    42    2
    37    41    44    1
    38    44    45    1
    39    45    46    1
    40    46    47   ar
    41    47    48   ar
    42    48    49   ar
    43    49    50   ar
    44     1    30    1
    45    30    31    1
    46    31    32   ar
    47    32    33   ar
    48    33    34   ar
    49    34    35   ar
    50    35    36   ar
    51    16    17   ar
    52    17    18   ar
    53    18    14   ar
    54    57    52   ar
    55    50    46   ar
    56    36    31   ar
    57    11    12    1
    58    24    25    1
    59     4     5    1
    60    40    43    1
@<TRIPOS>MOLECULE
*****
 57 60 0 0 0
SMALL
GASTEIGER

@<TRIPOS>ATOM
      1 C          62.1998   88.0381   10.8233 C.3     1  UNL1        0.0760
      2 C          60.4353   88.8935    9.1190 C.2     1  UNL1        0.2404
      3 O          60.0675   90.0044   10.0573 O.2     1  UNL1       -0.2733
      4 N          61.5015   87.9103    9.5020 N.am    1  UNL1       -0.3043
      5 H          61.7429   87.1811    8.8861 H       1  UNL1        0.1494
      6 C          59.7369   88.7657    7.7976 C.3     1  UNL1        0.1511
      7 N          58.5880   91.4506    5.1103 N.am    1  UNL1       -0.2567
      8 C          57.3399   91.8782    4.3966 C.3     1  UNL1        0.1168
      9 C          58.5384   90.3219    6.0971 C.2     1  UNL1        0.3046
     10 O          57.2407   89.6209    6.3702 O.2     1  UNL1       -0.2526
     11 N          59.7865   89.8943    6.8108 N.am    1  UNL1       -0.2824
     12 H          60.6382   90.3544    6.6316 H       1  UNL1        0.1514
     13 C          59.8856   92.1515    4.8373 C.3     1  UNL1        0.1413
     14 C          60.2015   93.1463    1.0988 C.ar    1  UNL1        0.0875
     15 N          59.3838   92.9770    2.3449 N.ar    1  UNL1       -0.2453
     16 C          60.2876   92.4627    3.4260 C.ar    1  UNL1        0.0858
     17 C          61.6638   92.3143    2.8481 C.ar    1  UNL1        0.0530
     18 S          61.6106   92.7367    1.4098 S.2     1  UNL1       -0.0705
     19 C          58.6153   94.6751   -0.2784 C.3     1  UNL1        0.0069
     20 C          59.6984   93.6388   -0.2257 C.3     1  UNL1        0.0465
     21 C          60.2785   93.0949   -1.4976 C.3     1  UNL1        0.0069
     22 C          58.9889   87.5093    7.4631 C.3     1  UNL1        0.0478
     23 C          59.5259   86.1782    7.8988 C.3     1  UNL1        0.0933
     24 N          59.8905   85.1448    6.8745 N.3     1  UNL1       -0.1832
     25 H          59.4900   85.4539    5.9889 H       1  UNL1        0.1484
     26 S          61.3324   84.8269    6.6102 S.O2    1  UNL1        0.0426
     27 C          62.7743   84.5090    6.3459 C.3     1  UNL1        0.1957
     28 O          61.7439   85.8359    7.6410 O.2     1  UNL1       -0.1575
     29 O          60.9210   83.8179    5.5794 O.2     1  UNL1       -0.1575
     30 C          62.0929   86.9381   11.8376 C.3     1  UNL1        0.0459
     31 C          62.5240   85.5460   11.4825 C.ar    1  UNL1       -0.0205
     32 C          63.2215   85.2861   10.1802 C.ar    1  UNL1       -0.0042
     33 C          63.6526   83.8939    9.8251 C.ar    1  UNL1       -0.0003
     34 C          63.3862   82.7617   10.7723 C.ar    1  UNL1       -0.0000
     35 C          62.6887   83.0217   12.0746 C.ar    1  UNL1       -0.0003
     36 C          62.2576   84.4138   12.4297 C.ar    1  UNL1       -0.0042
     37 C          63.0051   89.2658   11.1304 C.3     1  UNL1        0.0216
     38 C          62.7775   90.0107   12.4122 C.3     1  UNL1        0.0217
     39 C          63.9364   90.3318   13.3090 C.3     1  UNL1        0.0792
     40 N          64.3281   89.3782   14.3987 N.am    1  UNL1       -0.2720
     41 C          63.3732   89.0847   15.5176 C.2     1  UNL1        0.4019
     42 O          62.0265   89.7447   15.5469 O.2     1  UNL1       -0.2264
     43 H          65.2120   88.9451   14.3794 H       1  UNL1        0.1527
     44 O          63.7649   88.1312   16.6072 O.3     1  UNL1       -0.4291
     45 C          63.1424   86.7680   16.6706 C.3     1  UNL1        0.2447
     46 C          63.7570   85.6270   15.9154 C.ar    1  UNL1        0.0714
     47 C          64.8960   85.7242   14.9441 C.ar    1  UNL1        0.1053
     48 N          65.1835   84.3457   14.4273 N.ar    1  UNL1       -0.2350
     49 C          64.2221   83.3965   15.0791 C.ar    1  UNL1        0.1343
     50 S          63.3406   84.1884   15.9987 S.2     1  UNL1       -0.0652
     51 C          64.7034   91.6063   13.1161 C.3     1  UNL1        0.0460
     52 C          65.8742   91.9182   14.0004 C.ar    1  UNL1       -0.0205
     53 C          67.2708   91.7929   13.4677 C.ar    1  UNL1       -0.0042
     54 C          68.4415   92.1048   14.3520 C.ar    1  UNL1       -0.0003
     55 C          68.2157   92.5421   15.7689 C.ar    1  UNL1       -0.0000
     56 C          66.8191   92.6674   16.3016 C.ar    1  UNL1       -0.0003
     57 C          65.6484   92.3555   15.4174 C.ar    1  UNL1       -0.0042
@<TRIPOS>BOND
     1    19    20    1
     2    20    21    1
     3    20    14    1
     4    14    15   ar
     5    15    16   ar
     6    16    13    1
     7    13     7    1
     8     7     8    1
     9     7     9   am
    10     9    10    2
    11     9    11   am
    12    11     6    1
    13     6    22    1
    14    22    23    1
    15    23    24    1
    16    24    26    1
    17    26    27    1
    18    26    28    2
    19    26    29    2
    20     6     2    1
    21     2     3    2
    22     2     4   am
    23     4     1    1
    24     1    37    1
    25    37    38    1
    26    39    38    1
    27    39    51    1
    28    51    52    1
    29    52    53   ar
    30    53    54   ar
    31    54    55   ar
    32    55    56   ar
    33    56    57   ar
    34    39    40    1
    35    40    41   am
    36    41    42    2
    37    41    44    1
    38    44    45    1
    39    45    46    1
    40    46    47   ar
    41    47    48   ar
    42    48    49   ar
    43    49    50   ar
    44     1    30    1
    45    30    31    1
    46    31    32   ar
    47    32    33   ar
    48    33    34   ar
    49    34    35   ar
    50    35    36   ar
    51    16    17   ar
    52    17    18   ar
    53    18    14   ar
    54    57    52   ar
    55    50    46   ar
    56    36    31   ar
    57    11    12    1
    58    24    25    1
    59     4     5    1
    60    40    43    1
@<TRIPOS>MOLECULE
*****
 57 60 0 0 0
SMALL
GASTEIGER

@<TRIPOS>ATOM
      1 C          63.1591   86.0732   13.0120 C.3     1  UNL1        0.0760
      2 C          63.6187   88.0802   14.5966 C.2     1  UNL1        0.2404
      3 O          63.3344   87.2082   15.7835 O.2     1  UNL1       -0.2733
      4 N          63.5310   87.5127   13.2108 N.am    1  UNL1       -0.3043
      5 H          63.7176   88.0850   12.4318 H       1  UNL1        0.1494
      6 C          63.9907   89.5197   14.7954 C.3     1  UNL1        0.1511
      7 N          64.1863   91.4250   11.3195 N.am    1  UNL1       -0.2567
      8 C          63.3087   91.7274   10.1413 C.3     1  UNL1        0.1168
      9 C          63.6497   90.6236   12.4683 C.2     1  UNL1        0.3046
     10 O          62.2354   90.1245   12.4388 O.2     1  UNL1       -0.2526
     11 N          64.5273   90.3211   13.6466 N.am    1  UNL1       -0.2824
     12 H          65.4556   90.6487   13.6659 H       1  UNL1        0.1514
     13 C          65.6005   91.9240   11.3490 C.3     1  UNL1        0.1413
     14 C          66.3154   95.3779    9.7288 C.ar    1  UNL1        0.0875
     15 N          66.0033   93.9154    9.6119 N.ar    1  UNL1       -0.2453
     16 C          65.8997   93.3514   10.9980 C.ar    1  UNL1        0.0858
     17 C          66.1477   94.4654   11.9714 C.ar    1  UNL1        0.0530
     18 S          66.4046   95.7179   11.1871 S.2     1  UNL1       -0.0705
     19 C          65.3134   96.8558    7.8414 C.3     1  UNL1        0.0069
     20 C          66.5049   96.3329    8.5876 C.3     1  UNL1        0.0465
     21 C          67.8860   96.7650    8.1927 C.3     1  UNL1        0.0069
     22 C          63.8260   90.1576   16.1429 C.3     1  UNL1        0.0478
     23 C          64.5048   91.4610   16.4436 C.3     1  UNL1        0.0933
     24 N          65.3377   92.1329   15.3925 N.3     1  UNL1       -0.1832
     25 H          64.9336   93.0574   15.2430 H       1  UNL1        0.1484
     26 S          66.8075   92.3337   15.6152 S.O2    1  UNL1        0.0426
     27 C          68.2772   92.5345   15.8379 C.3     1  UNL1        0.1957
     28 O          66.5137   93.0742   16.8862 O.2     1  UNL1       -0.1575
     29 O          67.1012   91.5932   14.3443 O.2     1  UNL1       -0.1575
     30 C          64.0870   84.9883   13.4725 C.3     1  UNL1        0.0459
     31 C          63.7456   83.5504   13.2158 C.ar    1  UNL1       -0.0205
     32 C          63.2143   82.6956   14.3281 C.ar    1  UNL1       -0.0042
     33 C          62.8729   81.2577   14.0715 C.ar    1  UNL1       -0.0003
     34 C          63.0628   80.6746   12.7025 C.ar    1  UNL1       -0.0000
     35 C          63.5941   81.5293   11.5903 C.ar    1  UNL1       -0.0003
     36 C          63.9355   82.9672   11.8470 C.ar    1  UNL1       -0.0042
     37 C          61.8592   85.7186   12.3528 C.3     1  UNL1        0.0216
     38 C          61.1357   86.7385   11.5244 C.3     1  UNL1        0.0217
     39 C          61.2314   86.6940   10.0280 C.3     1  UNL1        0.0792
     40 N          60.2028   87.3933    9.1896 N.am    1  UNL1       -0.2720
     41 C          60.3364   88.8605    8.9076 C.2     1  UNL1        0.4019
     42 O          61.4987   89.6284    9.4640 O.2     1  UNL1       -0.2264
     43 H          59.4400   86.8893    8.8244 H       1  UNL1        0.1527
     44 O          59.3078   89.5598    8.0692 O.3     1  UNL1       -0.4291
     45 C          59.2482   89.3093    6.5915 C.3     1  UNL1        0.2447
     46 C          59.1640   90.4640    5.6378 C.ar    1  UNL1        0.0714
     47 C          60.3209   91.1236    4.9476 C.ar    1  UNL1        0.1053
     48 N          59.7801   92.2291    4.0900 N.ar    1  UNL1       -0.2350
     49 C          58.2888   92.2527    4.2502 C.ar    1  UNL1        0.1343
     50 S          57.9081   91.1618    5.2068 S.2     1  UNL1       -0.0652
     51 C          62.3557   85.9503    9.3702 C.3     1  UNL1        0.0460
     52 C          62.1639   85.3528    8.0077 C.ar    1  UNL1       -0.0205
     53 C          63.3556   84.9466    7.1923 C.ar    1  UNL1       -0.0042
     54 C          63.1637   84.3492    5.8299 C.ar    1  UNL1       -0.0003
     55 C          61.7802   84.1579    5.2829 C.ar    1  UNL1       -0.0000
     56 C          60.5885   84.5641    6.0982 C.ar    1  UNL1       -0.0003
     57 C          60.7804   85.1615    7.4606 C.ar    1  UNL1       -0.0042
@<TRIPOS>BOND
     1    19    20    1
     2    20    21    1
     3    20    14    1
     4    14    15   ar
     5    15    16   ar
     6    16    13    1
     7    13     7    1
     8     7     8    1
     9     7     9   am
    10     9    10    2
    11     9    11   am
    12    11     6    1
    13     6    22    1
    14    22    23    1
    15    23    24    1
    16    24    26    1
    17    26    27    1
    18    26    28    2
    19    26    29    2
    20     6     2    1
    21     2     3    2
    22     2     4   am
    23     4     1    1
    24     1    37    1
    25    37    38    1
    26    39    38    1
    27    39    51    1
    28    51    52    1
    29    52    53   ar
    30    53    54   ar
    31    54    55   ar
    32    55    56   ar
    33    56    57   ar
    34    39    40    1
    35    40    41   am
    36    41    42    2
    37    41    44    1
    38    44    45    1
    39    45    46    1
    40    46    47   ar
    41    47    48   ar
    42    48    49   ar
    43    49    50   ar
    44     1    30    1
    45    30    31    1
    46    31    32   ar
    47    32    33   ar
    48    33    34   ar
    49    34    35   ar
    50    35    36   ar
    51    16    17   ar
    52    17    18   ar
    53    18    14   ar
    54    57    52   ar
    55    50    46   ar
    56    36    31   ar
    57    11    12    1
    58    24    25    1
    59     4     5    1
    60    40    43    1
@<TRIPOS>MOLECULE
*****
 57 60 0 0 0
SMALL
GASTEIGER

@<TRIPOS>ATOM
      1 C          62.8831   86.9562   12.2336 C.3     1  UNL1        0.0760
      2 C          61.9168   89.1811   11.3027 C.2     1  UNL1        0.2404
      3 O          61.1229   89.3633   12.5623 O.2     1  UNL1       -0.2733
      4 N          62.7969   87.9775   11.1384 N.am    1  UNL1       -0.3043
      5 H          63.3180   87.8579   10.3117 H       1  UNL1        0.1494
      6 C          61.8307   90.2024   10.2075 C.3     1  UNL1        0.1511
      7 N          59.4691   88.5824    7.4600 N.am    1  UNL1       -0.2567
      8 C          59.1843   87.2374    6.8599 C.3     1  UNL1        0.1168
      9 C          60.5074   88.7199    8.5337 C.2     1  UNL1        0.3046
     10 O          61.2611   87.5125    9.0073 O.2     1  UNL1       -0.2526
     11 N          60.7922   90.0648    9.1338 N.am    1  UNL1       -0.2824
     12 H          60.2976   90.8573    8.8230 H       1  UNL1        0.1514
     13 C          58.7154   89.7897    6.9865 C.3     1  UNL1        0.1413
     14 C          60.7395   91.5272    4.1669 C.ar    1  UNL1        0.0875
     15 N          60.6370   90.5287    5.2815 N.ar    1  UNL1       -0.2453
     16 C          59.2525   90.6120    5.8527 C.ar    1  UNL1        0.0858
     17 C          58.4993   91.6621    5.0910 C.ar    1  UNL1        0.0530
     18 S          59.4183   92.2277    4.0491 S.2     1  UNL1       -0.0705
     19 C          61.9574   92.9195    2.3426 C.3     1  UNL1        0.0069
     20 C          61.9505   91.7808    3.3189 C.3     1  UNL1        0.0465
     21 C          63.1546   90.8956    3.4471 C.3     1  UNL1        0.0069
     22 C          62.7829   91.3611   10.1859 C.3     1  UNL1        0.0478
     23 C          64.1263   91.2403   10.8422 C.3     1  UNL1        0.0933
     24 N          64.7966   92.4568   11.4084 N.3     1  UNL1       -0.1832
     25 H          65.1835   92.1859   12.3124 H       1  UNL1        0.1484
     26 S          65.9021   93.1266   10.6473 S.O2    1  UNL1        0.0426
     27 C          67.0076   93.7965    9.8863 C.3     1  UNL1        0.1957
     28 O          66.7488   91.8974   10.7954 O.2     1  UNL1       -0.1575
     29 O          65.0553   94.3559   10.4992 O.2     1  UNL1       -0.1575
     30 C          62.0384   85.7181   12.1727 C.3     1  UNL1        0.0459
     31 C          62.6064   84.4497   11.6083 C.ar    1  UNL1       -0.0205
     32 C          62.2897   83.1335   12.2544 C.ar    1  UNL1       -0.0042
     33 C          62.8577   81.8651   11.6900 C.ar    1  UNL1       -0.0003
     34 C          63.7424   81.9129   10.4795 C.ar    1  UNL1       -0.0000
     35 C          64.0591   83.2291    9.8336 C.ar    1  UNL1       -0.0003
     36 C          63.4911   84.4975   10.3980 C.ar    1  UNL1       -0.0042
     37 C          63.8139   87.1730   13.3897 C.3     1  UNL1        0.0216
     38 C          63.8020   88.4790   14.1274 C.3     1  UNL1        0.0217
     39 C          63.6275   88.4973   15.6172 C.3     1  UNL1        0.0792
     40 N          63.8890   89.7576   16.3874 N.am    1  UNL1       -0.2720
     41 C          63.7966   91.0885   15.7017 C.2     1  UNL1        0.4019
     42 O          63.4428   91.1592   14.2458 O.2     1  UNL1       -0.2264
     43 H          64.1212   89.7113   17.3430 H       1  UNL1        0.1527
     44 O          64.0581   92.3488   16.4720 O.3     1  UNL1       -0.4291
     45 C          65.4521   92.6816   16.9148 C.3     1  UNL1        0.2447
     46 C          66.5662   92.7302   15.9117 C.ar    1  UNL1        0.0714
     47 C          66.4499   93.1816   14.4859 C.ar    1  UNL1        0.1053
     48 N          67.8041   93.0663   13.8512 N.ar    1  UNL1       -0.2350
     49 C          68.7574   92.5437   14.8847 C.ar    1  UNL1        0.1343
     50 S          67.9924   92.3360   16.1581 S.2     1  UNL1       -0.0652
     51 C          63.1915   87.2555   16.3366 C.3     1  UNL1        0.0460
     52 C          63.5999   85.9074   15.8208 C.ar    1  UNL1       -0.0205
     53 C          64.9644   85.7126   15.2291 C.ar    1  UNL1       -0.0042
     54 C          65.3728   84.3646   14.7134 C.ar    1  UNL1       -0.0003
     55 C          64.4167   83.2113   14.7894 C.ar    1  UNL1       -0.0000
     56 C          63.0522   83.4061   15.3811 C.ar    1  UNL1       -0.0003
     57 C          62.6438   84.7541   15.8968 C.ar    1  UNL1       -0.0042
@<TRIPOS>BOND
     1    19    20    1
     2    20    21    1
     3    20    14    1
     4    14    15   ar
     5    15    16   ar
     6    16    13    1
     7    13     7    1
     8     7     8    1
     9     7     9   am
    10     9    10    2
    11     9    11   am
    12    11     6    1
    13     6    22    1
    14    22    23    1
    15    23    24    1
    16    24    26    1
    17    26    27    1
    18    26    28    2
    19    26    29    2
    20     6     2    1
    21     2     3    2
    22     2     4   am
    23     4     1    1
    24     1    37    1
    25    37    38    1
    26    39    38    1
    27    39    51    1
    28    51    52    1
    29    52    53   ar
    30    53    54   ar
    31    54    55   ar
    32    55    56   ar
    33    56    57   ar
    34    39    40    1
    35    40    41   am
    36    41    42    2
    37    41    44    1
    38    44    45    1
    39    45    46    1
    40    46    47   ar
    41    47    48   ar
    42    48    49   ar
    43    49    50   ar
    44     1    30    1
    45    30    31    1
    46    31    32   ar
    47    32    33   ar
    48    33    34   ar
    49    34    35   ar
    50    35    36   ar
    51    16    17   ar
    52    17    18   ar
    53    18    14   ar
    54    57    52   ar
    55    50    46   ar
    56    36    31   ar
    57    11    12    1
    58    24    25    1
    59     4     5    1
    60    40    43    1
@<TRIPOS>MOLECULE
*****
 57 60 0 0 0
SMALL
GASTEIGER

@<TRIPOS>ATOM
      1 C          62.1744   87.7735   10.9638 C.3     1  UNL1        0.0760
      2 C          60.5126   88.6448    9.1667 C.2     1  UNL1        0.2404
      3 O          60.0901   89.7473   10.0919 O.2     1  UNL1       -0.2733
      4 N          61.5548   87.6579    9.6026 N.am    1  UNL1       -0.3043
      5 H          61.8321   86.9343    8.9954 H       1  UNL1        0.1494
      6 C          59.8930   88.5292    7.8056 C.3     1  UNL1        0.1511
      7 N          59.2048   91.2948    5.0437 N.am    1  UNL1       -0.2567
      8 C          58.0429   91.9221    4.3321 C.3     1  UNL1        0.1168
      9 C          58.9680   90.2257    6.0688 C.2     1  UNL1        0.3046
     10 O          57.5692   89.7839    6.3824 O.2     1  UNL1       -0.2526
     11 N          60.1299   89.5983    6.7804 N.am    1  UNL1       -0.2824
     12 H          61.0479   89.8882    6.5746 H       1  UNL1        0.1514
     13 C          60.6035   91.7365    4.7301 C.3     1  UNL1        0.1413
     14 C          62.1059   93.1311    1.4341 C.ar    1  UNL1        0.0875
     15 N          62.2569   92.4098    2.7406 N.ar    1  UNL1       -0.2453
     16 C          60.9121   92.3647    3.4034 C.ar    1  UNL1        0.0858
     17 C          59.9298   93.0582    2.5065 C.ar    1  UNL1        0.0530
     18 S          60.6676   93.5319    1.2894 S.2     1  UNL1       -0.0705
     19 C          64.6337   93.3815    0.8888 C.3     1  UNL1        0.0069
     20 C          63.2008   93.4038    0.4458 C.3     1  UNL1        0.0465
     21 C          62.8629   93.6988   -0.9855 C.3     1  UNL1        0.0069
     22 C          59.0365   87.3445    7.4696 C.3     1  UNL1        0.0478
     23 C          59.4931   85.9622    7.8312 C.3     1  UNL1        0.0933
     24 N          59.9166   85.0068    6.7552 N.3     1  UNL1       -0.1832
     25 H          59.5224   85.3542    5.8810 H       1  UNL1        0.1484
     26 S          61.3744   84.7581    6.5042 S.O2    1  UNL1        0.0426
     27 C          62.8322   84.5095    6.2532 C.3     1  UNL1        0.1957
     28 O          61.0241   83.8787    5.3407 O.2     1  UNL1       -0.1575
     29 O          61.7248   85.6375    7.6678 O.2     1  UNL1       -0.1575
     30 C          62.1130   86.6165   11.9165 C.3     1  UNL1        0.0459
     31 C          62.5718   85.2578   11.4769 C.ar    1  UNL1       -0.0205
     32 C          62.2736   84.0554   12.3228 C.ar    1  UNL1       -0.0042
     33 C          62.7325   82.6966   11.8831 C.ar    1  UNL1       -0.0003
     34 C          63.4895   82.5403   10.5976 C.ar    1  UNL1       -0.0000
     35 C          63.7876   83.7426    9.7518 C.ar    1  UNL1       -0.0003
     36 C          63.3288   85.1013   10.1914 C.ar    1  UNL1       -0.0042
     37 C          62.8554   89.0460   11.3722 C.3     1  UNL1        0.0216
     38 C          62.4438   89.7455   12.6336 C.3     1  UNL1        0.0217
     39 C          63.4647   90.0507   13.6894 C.3     1  UNL1        0.0792
     40 N          63.8775   88.9871   14.6632 N.am    1  UNL1       -0.2720
     41 C          63.0686   88.7518   15.9044 C.2     1  UNL1        0.4019
     42 O          61.8470   89.5802   16.1717 O.2     1  UNL1       -0.2264
     43 H          64.6793   88.4434   14.4878 H       1  UNL1        0.1527
     44 O          63.4814   87.6882   16.8782 O.3     1  UNL1       -0.4291
     45 C          62.8771   86.3180   16.7930 C.3     1  UNL1        0.2447
     46 C          63.5439   85.2539   15.9726 C.ar    1  UNL1        0.0714
     47 C          63.1999   83.7939   15.9745 C.ar    1  UNL1        0.1053
     48 N          64.1152   83.1007   15.0093 N.ar    1  UNL1       -0.2350
     49 C          65.0250   84.1322   14.4109 C.ar    1  UNL1        0.1343
     50 S          64.6719   85.4630   15.0062 S.2     1  UNL1       -0.0652
     51 C          64.0727   91.4195   13.7713 C.3     1  UNL1        0.0460
     52 C          65.1945   91.7982   12.8503 C.ar    1  UNL1       -0.0205
     53 C          66.6108   91.7737   13.3438 C.ar    1  UNL1       -0.0042
     54 C          67.7325   92.1525   12.4228 C.ar    1  UNL1       -0.0003
     55 C          67.4380   92.5557   11.0083 C.ar    1  UNL1       -0.0000
     56 C          66.0217   92.5801   10.5149 C.ar    1  UNL1       -0.0003
     57 C          64.9000   92.2014   11.4359 C.ar    1  UNL1       -0.0042
@<TRIPOS>BOND
     1    19    20    1
     2    20    21    1
     3    20    14    1
     4    14    15   ar
     5    15    16   ar
     6    16    13    1
     7    13     7    1
     8     7     8    1
     9     7     9   am
    10     9    10    2
    11     9    11   am
    12    11     6    1
    13     6    22    1
    14    22    23    1
    15    23    24    1
    16    24    26    1
    17    26    27    1
    18    26    28    2
    19    26    29    2
    20     6     2    1
    21     2     3    2
    22     2     4   am
    23     4     1    1
    24     1    37    1
    25    37    38    1
    26    39    38    1
    27    39    51    1
    28    51    52    1
    29    52    53   ar
    30    53    54   ar
    31    54    55   ar
    32    55    56   ar
    33    56    57   ar
    34    39    40    1
    35    40    41   am
    36    41    42    2
    37    41    44    1
    38    44    45    1
    39    45    46    1
    40    46    47   ar
    41    47    48   ar
    42    48    49   ar
    43    49    50   ar
    44     1    30    1
    45    30    31    1
    46    31    32   ar
    47    32    33   ar
    48    33    34   ar
    49    34    35   ar
    50    35    36   ar
    51    16    17   ar
    52    17    18   ar
    53    18    14   ar
    54    57    52   ar
    55    50    46   ar
    56    36    31   ar
    57    11    12    1
    58    24    25    1
    59     4     5    1
    60    40    43    1
@<TRIPOS>MOLECULE
*****
 57 60 0 0 0
SMALL
GASTEIGER

@<TRIPOS>ATOM
      1 C          61.3168   88.7033   11.6564 C.3     1  UNL1        0.0760
      2 C          62.3639   86.5860   10.5744 C.2     1  UNL1        0.2404
      3 O          62.7343   87.3884    9.3625 O.2     1  UNL1       -0.2733
      4 N          61.6551   87.2434   11.7214 N.am    1  UNL1       -0.3043
      5 H          61.4120   86.7167   12.5168 H       1  UNL1        0.1494
      6 C          62.7023   85.1261   10.6394 C.3     1  UNL1        0.1511
      7 N          62.6257   82.1436   13.2565 N.am    1  UNL1       -0.2567
      8 C          63.0149   80.6973   13.3391 C.3     1  UNL1        0.1168
      9 C          62.8586   82.9117   11.9893 C.2     1  UNL1        0.3046
     10 O          63.4806   82.2335   10.8047 O.2     1  UNL1       -0.2526
     11 N          62.4694   84.3580   11.9067 N.am    1  UNL1       -0.2824
     12 H          62.0612   84.8031   12.6842 H       1  UNL1        0.1514
     13 C          62.0038   82.8217   14.4410 C.3     1  UNL1        0.1413
     14 C          63.1260   85.9620   16.4272 C.ar    1  UNL1        0.0875
     15 N          62.0682   84.9823   16.0136 N.ar    1  UNL1       -0.2453
     16 C          62.6988   83.9806   15.0922 C.ar    1  UNL1        0.0858
     17 C          64.1464   84.3413   14.9363 C.ar    1  UNL1        0.0530
     18 S          64.4105   85.5659   15.7613 S.2     1  UNL1       -0.0705
     19 C          62.6411   86.9053   18.7989 C.3     1  UNL1        0.0069
     20 C          62.9333   87.1325   17.3453 C.3     1  UNL1        0.0465
     21 C          63.0328   88.5301   16.8099 C.3     1  UNL1        0.0069
     22 C          63.2734   84.4343    9.4373 C.3     1  UNL1        0.0478
     23 C          63.2585   85.1168    8.1016 C.3     1  UNL1        0.0933
     24 N          61.9713   85.2541    7.3439 N.3     1  UNL1       -0.1832
     25 H          61.8505   86.2475    7.1464 H       1  UNL1        0.1484
     26 S          61.7848   84.5284    6.0445 S.O2    1  UNL1        0.0426
     27 C          61.5983   83.8026    4.7450 C.3     1  UNL1        0.1957
     28 O          63.2386   84.7202    5.7287 O.2     1  UNL1       -0.1575
     29 O          60.3310   84.3365    6.3603 O.2     1  UNL1       -0.1575
     30 C          60.0608   89.1522   10.9700 C.3     1  UNL1        0.0459
     31 C          59.7767   88.7137    9.5639 C.ar    1  UNL1       -0.0205
     32 C          60.0391   89.6473    8.4196 C.ar    1  UNL1       -0.0042
     33 C          59.7550   89.2087    7.0135 C.ar    1  UNL1       -0.0003
     34 C          59.2085   87.8365    6.7519 C.ar    1  UNL1       -0.0000
     35 C          58.9462   86.9029    7.8962 C.ar    1  UNL1       -0.0003
     36 C          59.2303   87.3415    9.3022 C.ar    1  UNL1       -0.0042
     37 C          62.2343   89.7142   12.2777 C.3     1  UNL1        0.0216
     38 C          63.1334   90.5442   11.4100 C.3     1  UNL1        0.0217
     39 C          64.2754   91.3011   12.0208 C.3     1  UNL1        0.0792
     40 N          64.1131   91.9482   13.3643 N.am    1  UNL1       -0.2720
     41 C          64.4713   91.1919   14.6092 C.2     1  UNL1        0.4019
     42 O          64.9918   89.7886   14.5106 O.2     1  UNL1       -0.2264
     43 H          63.7715   92.8693   13.4290 H       1  UNL1        0.1527
     44 O          64.3090   91.8390   15.9527 O.3     1  UNL1       -0.4291
     45 C          65.4349   92.6355   16.5424 C.3     1  UNL1        0.2447
     46 C          66.7605   92.6921   15.8428 C.ar    1  UNL1        0.0714
     47 C          67.0001   93.1835   14.4460 C.ar    1  UNL1        0.1053
     48 N          68.4670   93.0623   14.1571 N.ar    1  UNL1       -0.2350
     49 C          69.1341   92.4960   15.3754 C.ar    1  UNL1        0.1343
     50 S          68.0795   92.2672   16.4172 S.2     1  UNL1       -0.0652
     51 C          65.5796   91.4109   11.2881 C.3     1  UNL1        0.0460
     52 C          66.0522   92.7460   10.7939 C.ar    1  UNL1       -0.0205
     53 C          65.3871   94.0018   11.2741 C.ar    1  UNL1       -0.0042
     54 C          65.8597   95.3368   10.7799 C.ar    1  UNL1       -0.0003
     55 C          66.9975   95.4161    9.8056 C.ar    1  UNL1       -0.0000
     56 C          67.6626   94.1603    9.3255 C.ar    1  UNL1       -0.0003
     57 C          67.1900   92.8253    9.8196 C.ar    1  UNL1       -0.0042
@<TRIPOS>BOND
     1    19    20    1
     2    20    21    1
     3    20    14    1
     4    14    15   ar
     5    15    16   ar
     6    16    13    1
     7    13     7    1
     8     7     8    1
     9     7     9   am
    10     9    10    2
    11     9    11   am
    12    11     6    1
    13     6    22    1
    14    22    23    1
    15    23    24    1
    16    24    26    1
    17    26    27    1
    18    26    28    2
    19    26    29    2
    20     6     2    1
    21     2     3    2
    22     2     4   am
    23     4     1    1
    24     1    37    1
    25    37    38    1
    26    39    38    1
    27    39    51    1
    28    51    52    1
    29    52    53   ar
    30    53    54   ar
    31    54    55   ar
    32    55    56   ar
    33    56    57   ar
    34    39    40    1
    35    40    41   am
    36    41    42    2
    37    41    44    1
    38    44    45    1
    39    45    46    1
    40    46    47   ar
    41    47    48   ar
    42    48    49   ar
    43    49    50   ar
    44     1    30    1
    45    30    31    1
    46    31    32   ar
    47    32    33   ar
    48    33    34   ar
    49    34    35   ar
    50    35    36   ar
    51    16    17   ar
    52    17    18   ar
    53    18    14   ar
    54    57    52   ar
    55    50    46   ar
    56    36    31   ar
    57    11    12    1
    58    24    25    1
    59     4     5    1
    60    40    43    1
@<TRIPOS>MOLECULE
*****
 57 60 0 0 0
SMALL
GASTEIGER

@<TRIPOS>ATOM
      1 C          62.9246   86.1173   12.5158 C.3     1  UNL1        0.0760
      2 C          64.2263   87.6213   14.1873 C.2     1  UNL1        0.2404
      3 O          65.0789   86.4503   14.5769 O.2     1  UNL1       -0.2733
      4 N          63.1491   87.4548   13.1567 N.am    1  UNL1       -0.3043
      5 H          62.5895   88.2234   12.9010 H       1  UNL1        0.1494
      6 C          64.4507   88.9588   14.8282 C.3     1  UNL1        0.1511
      7 N          66.6849   92.1964   14.3024 N.am    1  UNL1       -0.2567
      8 C          66.8405   93.5725   14.8787 C.3     1  UNL1        0.1168
      9 C          65.6456   91.2657   14.8534 C.2     1  UNL1        0.3046
     10 O          64.7619   91.7111   15.9806 O.2     1  UNL1       -0.2526
     11 N          65.4901   89.8895   14.2772 N.am    1  UNL1       -0.2824
     12 H          66.0701   89.5972   13.5374 H       1  UNL1        0.1514
     13 C          67.5686   91.7510   13.1753 C.3     1  UNL1        0.1413
     14 C          67.1517   94.1862   10.1817 C.ar    1  UNL1        0.0875
     15 N          66.9650   93.8476   11.6310 N.ar    1  UNL1       -0.2453
     16 C          67.5405   92.4825   11.8660 C.ar    1  UNL1        0.0858
     17 C          68.0829   91.9774   10.5619 C.ar    1  UNL1        0.0530
     18 S          67.8427   93.0303    9.5209 S.2     1  UNL1       -0.0705
     19 C          67.3309   95.8551    8.1986 C.3     1  UNL1        0.0069
     20 C          66.7228   95.4574    9.5108 C.3     1  UNL1        0.0465
     21 C          65.6859   96.3311   10.1523 C.3     1  UNL1        0.0069
     22 C          63.6360   89.3655   16.0201 C.3     1  UNL1        0.0478
     23 C          62.4924   88.5079   16.4749 C.3     1  UNL1        0.0933
     24 N          62.7481   87.3254   17.3616 N.3     1  UNL1       -0.1832
     25 H          62.1440   87.4324   18.1765 H       1  UNL1        0.1484
     26 S          62.5301   85.9360   16.8403 S.O2    1  UNL1        0.0426
     27 C          62.3121   84.5465   16.3189 C.3     1  UNL1        0.1957
     28 O          64.0113   85.6997   16.8507 O.2     1  UNL1       -0.1575
     29 O          61.0489   86.1722   16.8299 O.2     1  UNL1       -0.1575
     30 C          63.8360   84.9698   12.8360 C.3     1  UNL1        0.0459
     31 C          63.5776   83.6178   12.2398 C.ar    1  UNL1       -0.0205
     32 C          62.7964   82.5951   13.0106 C.ar    1  UNL1       -0.0042
     33 C          62.5380   81.2432   12.4144 C.ar    1  UNL1       -0.0003
     34 C          63.0607   80.9139   11.0475 C.ar    1  UNL1       -0.0000
     35 C          63.8419   81.9366   10.2768 C.ar    1  UNL1       -0.0003
     36 C          64.1003   83.2885   10.8730 C.ar    1  UNL1       -0.0042
     37 C          61.7888   85.9274   11.5547 C.3     1  UNL1        0.0216
     38 C          61.8510   86.5443   10.1888 C.3     1  UNL1        0.0217
     39 C          61.3291   87.9333    9.9687 C.3     1  UNL1        0.0792
     40 N          60.8604   88.3512    8.6065 N.am    1  UNL1       -0.2720
     41 C          59.5565   87.8375    8.0716 C.2     1  UNL1        0.4019
     42 O          58.7213   86.9059    8.8990 O.2     1  UNL1       -0.2264
     43 H          61.4086   88.9627    8.0634 H       1  UNL1        0.1527
     44 O          59.0878   88.2555    6.7094 O.3     1  UNL1       -0.4291
     45 C          58.4138   89.5823    6.5225 C.3     1  UNL1        0.2447
     46 C          59.0009   90.5966    5.5863 C.ar    1  UNL1        0.0714
     47 C          60.4511   90.7289    5.2264 C.ar    1  UNL1        0.1053
     48 N          60.5874   91.8708    4.2633 N.ar    1  UNL1       -0.2350
     49 C          59.2215   92.4442    4.0280 C.ar    1  UNL1        0.1343
     50 S          58.2410   91.6568    4.8456 S.2     1  UNL1       -0.0652
     51 C          61.2759   88.9042   11.1107 C.3     1  UNL1        0.0460
     52 C          62.2482   90.0449   11.1713 C.ar    1  UNL1       -0.0205
     53 C          62.8594   90.5772    9.9092 C.ar    1  UNL1       -0.0042
     54 C          63.8316   91.7179    9.9698 C.ar    1  UNL1       -0.0003
     55 C          64.1926   92.3262   11.2925 C.ar    1  UNL1       -0.0000
     56 C          63.5813   91.7939   12.5547 C.ar    1  UNL1       -0.0003
     57 C          62.6091   90.6533   12.4941 C.ar    1  UNL1       -0.0042
@<TRIPOS>BOND
     1    19    20    1
     2    20    21    1
     3    20    14    1
     4    14    15   ar
     5    15    16   ar
     6    16    13    1
     7    13     7    1
     8     7     8    1
     9     7     9   am
    10     9    10    2
    11     9    11   am
    12    11     6    1
    13     6    22    1
    14    22    23    1
    15    23    24    1
    16    24    26    1
    17    26    27    1
    18    26    28    2
    19    26    29    2
    20     6     2    1
    21     2     3    2
    22     2     4   am
    23     4     1    1
    24     1    37    1
    25    37    38    1
    26    39    38    1
    27    39    51    1
    28    51    52    1
    29    52    53   ar
    30    53    54   ar
    31    54    55   ar
    32    55    56   ar
    33    56    57   ar
    34    39    40    1
    35    40    41   am
    36    41    42    2
    37    41    44    1
    38    44    45    1
    39    45    46    1
    40    46    47   ar
    41    47    48   ar
    42    48    49   ar
    43    49    50   ar
    44     1    30    1
    45    30    31    1
    46    31    32   ar
    47    32    33   ar
    48    33    34   ar
    49    34    35   ar
    50    35    36   ar
    51    16    17   ar
    52    17    18   ar
    53    18    14   ar
    54    57    52   ar
    55    50    46   ar
    56    36    31   ar
    57    11    12    1
    58    24    25    1
    59     4     5    1
    60    40    43    1
@<TRIPOS>MOLECULE
*****
 57 60 0 0 0
SMALL
GASTEIGER

@<TRIPOS>ATOM
      1 C          62.2471   88.3175   10.6929 C.3     1  UNL1        0.0760
      2 C          60.4684   89.0935    8.9654 C.2     1  UNL1        0.2404
      3 O          60.0591   90.2047    9.8861 O.2     1  UNL1       -0.2733
      4 N          61.5624   88.1498    9.3688 N.am    1  UNL1       -0.3043
      5 H          61.8311   87.4205    8.7646 H       1  UNL1        0.1494
      6 C          59.7837   88.9258    7.6414 C.3     1  UNL1        0.1511
      7 N          58.6260   91.5823    4.9298 N.am    1  UNL1       -0.2567
      8 C          57.3677   92.0328    4.2488 C.3     1  UNL1        0.1168
      9 C          58.5757   90.4794    5.9451 C.2     1  UNL1        0.3046
     10 O          57.2671   89.8268    6.2795 O.2     1  UNL1       -0.2526
     11 N          59.8340   90.0289    6.6260 N.am    1  UNL1       -0.2824
     12 H          60.6929   90.4571    6.4066 H       1  UNL1        0.1514
     13 C          59.9346   92.2348    4.5954 C.3     1  UNL1        0.1413
     14 C          60.0432   93.1667    0.8291 C.ar    1  UNL1        0.0875
     15 N          59.2782   92.9067    2.0928 N.ar    1  UNL1       -0.2453
     16 C          60.2648   92.5665    3.1703 C.ar    1  UNL1        0.0858
     17 C          61.6396   92.6162    2.5724 C.ar    1  UNL1        0.0530
     18 S          61.5027   92.9872    1.1254 S.2     1  UNL1       -0.0705
     19 C          60.2522   93.3563   -1.7537 C.3     1  UNL1        0.0069
     20 C          59.4525   93.5406   -0.4981 C.3     1  UNL1        0.0465
     21 C          58.0621   94.0989   -0.5697 C.3     1  UNL1        0.0069
     22 C          59.0487   87.6553    7.3327 C.3     1  UNL1        0.0478
     23 C          59.5216   86.3553    7.9128 C.3     1  UNL1        0.0933
     24 N          59.8957   85.2211    7.0054 N.3     1  UNL1       -0.1832
     25 H          59.5073   85.4379    6.0875 H       1  UNL1        0.1484
     26 S          61.3398   84.8749    6.7938 S.O2    1  UNL1        0.0426
     27 C          62.7839   84.5288    6.5822 C.3     1  UNL1        0.1957
     28 O          60.9575   83.9761    5.6554 O.2     1  UNL1       -0.1575
     29 O          61.7221   85.7738    7.9322 O.2     1  UNL1       -0.1575
     30 C          61.9041   87.4077   11.8351 C.3     1  UNL1        0.0459
     31 C          62.6131   86.0946   11.9871 C.ar    1  UNL1       -0.0205
     32 C          62.4935   85.0495   10.9177 C.ar    1  UNL1       -0.0042
     33 C          63.2025   83.7364   11.0697 C.ar    1  UNL1       -0.0003
     34 C          64.0311   83.4684   12.2910 C.ar    1  UNL1       -0.0000
     35 C          64.1507   84.5135   13.3603 C.ar    1  UNL1       -0.0003
     36 C          63.4417   85.8266   13.2084 C.ar    1  UNL1       -0.0042
     37 C          63.2748   89.3948   10.8747 C.3     1  UNL1        0.0216
     38 C          63.0136   90.5284   11.8216 C.3     1  UNL1        0.0217
     39 C          64.0211   91.6299   11.9690 C.3     1  UNL1        0.0792
     40 N          64.7686   91.7950   13.2590 N.am    1  UNL1       -0.2720
     41 C          64.2412   91.1702   14.5167 C.2     1  UNL1        0.4019
     42 O          62.9663   90.3805   14.4843 O.2     1  UNL1       -0.2264
     43 H          65.6053   92.3133   13.2802 H       1  UNL1        0.1527
     44 O          64.9886   91.3353   15.8066 O.3     1  UNL1       -0.4291
     45 C          65.7592   92.5947   16.0711 C.3     1  UNL1        0.2447
     46 C          67.1774   92.7194   15.5986 C.ar    1  UNL1        0.0714
     47 C          68.1504   93.7874   16.0020 C.ar    1  UNL1        0.1053
     48 N          69.4460   93.5262   15.2925 N.ar    1  UNL1       -0.2350
     49 C          69.2737   92.2967   14.4507 C.ar    1  UNL1        0.1343
     50 S          67.8717   91.7981   14.6399 S.2     1  UNL1       -0.0652
     51 C          64.2810   92.5664   10.8265 C.3     1  UNL1        0.0460
     52 C          65.6904   92.8914   10.4288 C.ar    1  UNL1       -0.0205
     53 C          66.0261   94.2563    9.9051 C.ar    1  UNL1       -0.0042
     54 C          67.4354   94.5813    9.5075 C.ar    1  UNL1       -0.0003
     55 C          68.5090   93.5413    9.6336 C.ar    1  UNL1       -0.0000
     56 C          68.1733   92.1765   10.1574 C.ar    1  UNL1       -0.0003
     57 C          66.7640   91.8515   10.5550 C.ar    1  UNL1       -0.0042
@<TRIPOS>BOND
     1    19    20    1
     2    20    21    1
     3    20    14    1
     4    14    15   ar
     5    15    16   ar
     6    16    13    1
     7    13     7    1
     8     7     8    1
     9     7     9   am
    10     9    10    2
    11     9    11   am
    12    11     6    1
    13     6    22    1
    14    22    23    1
    15    23    24    1
    16    24    26    1
    17    26    27    1
    18    26    28    2
    19    26    29    2
    20     6     2    1
    21     2     3    2
    22     2     4   am
    23     4     1    1
    24     1    37    1
    25    37    38    1
    26    39    38    1
    27    39    51    1
    28    51    52    1
    29    52    53   ar
    30    53    54   ar
    31    54    55   ar
    32    55    56   ar
    33    56    57   ar
    34    39    40    1
    35    40    41   am
    36    41    42    2
    37    41    44    1
    38    44    45    1
    39    45    46    1
    40    46    47   ar
    41    47    48   ar
    42    48    49   ar
    43    49    50   ar
    44     1    30    1
    45    30    31    1
    46    31    32   ar
    47    32    33   ar
    48    33    34   ar
    49    34    35   ar
    50    35    36   ar
    51    16    17   ar
    52    17    18   ar
    53    18    14   ar
    54    57    52   ar
    55    50    46   ar
    56    36    31   ar
    57    11    12    1
    58    24    25    1
    59     4     5    1
    60    40    43    1
