@<TRIPOS>MOLECULE
*****
 77 79 0 0 0
SMALL
GASTEIGER

@<TRIPOS>ATOM
      1 C          68.4449   86.1314   -7.3468 C.3     1  UNL1        0.0062
      2 C          67.8641   86.1802   -5.9646 C.3     1  UNL1        0.0673
      3 C          68.4217   84.8535   -5.5415 C.3     1  UNL1        0.1178
      4 O          69.0997   84.5735   -6.8499 O.3     1  UNL1       -0.3840
      5 C          68.8612   83.5757   -4.8903 C.3     1  UNL1        0.0490
      6 C          69.6158   83.0729   -6.0852 C.3     1  UNL1        0.0072
      7 C          69.1691   82.3856   -4.0310 C.2     1  UNL1       -0.0240
      8 C          69.3361   81.3192   -2.9894 C.2     1  UNL1       -0.0045
      9 C          69.3572   80.4090   -1.7972 C.2     1  UNL1       -0.0003
     10 C          69.2316   79.6827   -0.4908 C.2     1  UNL1       -0.0000
     11 C          68.9632   79.1623    0.8902 C.2     1  UNL1       -0.0000
     12 C          68.5602   78.8637    2.3038 C.2     1  UNL1       -0.0000
     13 C          68.0348   78.7959    3.7072 C.2     1  UNL1        0.0000
     14 C          67.4030   78.9610    5.0576 C.2     1  UNL1        0.0000
     15 C          66.6839   79.3539    6.3139 C.2     1  UNL1       -0.0000
     16 C          65.8995   79.9627    7.4382 C.2     1  UNL1       -0.0000
     17 C          65.0735   80.7690    8.3961 C.2     1  UNL1       -0.0000
     18 C          64.2310   81.7483    9.1586 C.2     1  UNL1       -0.0003
     19 C          63.3977   82.8706    9.7025 C.2     1  UNL1       -0.0022
     20 C          62.5988   84.1021   10.0113 C.2     1  UNL1        0.0030
     21 C          61.8587   85.4052   10.0755 C.3     1  UNL1        0.1423
     22 C          61.1997   86.7404    9.8934 C.3     1  UNL1        0.0643
     23 C          60.5444   88.3895    9.2729 C.3     1  UNL1        0.1278
     24 O          60.5969   89.2108    8.0189 O.3     1  UNL1       -0.3363
     25 C          59.8947   90.5350    7.9597 C.3     1  UNL1        0.1881
     26 O          60.0449   90.8548    7.1475 O.3     1  UNL1       -0.3634
     27 C          59.7277   91.6014    6.9181 C.3     1  UNL1        0.0853
     28 C          59.7066   92.5115    5.7259 C.3     1  UNL1        0.1179
     29 O          58.8655   93.5664    6.3817 O.3     1  UNL1       -0.3842
     30 C          59.8322   93.2378    4.4196 C.3     1  UNL1        0.0611
     31 C          60.1005   93.7582    3.0385 C.3     1  UNL1        0.1396
     32 O          59.3281   95.0303    3.2258 O.3     1  UNL1       -0.3819
     33 C          60.5035   94.0568    1.6249 C.3     1  UNL1        0.1373
     34 O          59.8013   95.3810    1.5657 O.3     1  UNL1       -0.3820
     35 C          61.0290   94.1247    0.2215 C.3     1  UNL1        0.0342
     36 C          61.6608   93.9596   -1.1289 C.3     1  UNL1        0.0319
     37 C          62.3799   93.5666   -2.3853 C.3     1  UNL1        0.1130
     38 O          62.0048   94.8053   -3.1434 O.3     1  UNL1       -0.3844
     39 C          63.1643   92.9578   -3.5094 C.3     1  UNL1        0.0590
     40 C          63.9903   92.1515   -4.4674 C.3     1  UNL1        0.1241
     41 O          63.8960   93.1435   -5.5885 O.3     1  UNL1       -0.3838
     42 C          64.8328   91.1722   -5.2299 C.3     1  UNL1        0.1387
     43 C          65.6661   90.0499   -5.7738 C.2     1  UNL1        0.3194
     44 O          65.8639   90.6756   -7.1226 O.2     1  UNL1       -0.2500
     45 O          66.4650   88.8184   -6.0826 O.3     1  UNL1       -0.4521
     46 C          67.2051   87.5154   -6.1468 C.3     1  UNL1        0.1712
     47 C          67.6711   87.6993   -7.5607 C.3     1  UNL1        0.0474
     48 C          59.1401   91.0378    9.1546 C.3     1  UNL1        0.0857
     49 C          59.0876   90.2165   10.4086 C.3     1  UNL1        0.1228
     50 O          58.3329   90.7193   11.6034 O.3     1  UNL1       -0.3838
     51 C          59.7898   88.8923   10.4677 C.3     1  UNL1        0.0908
     52 H          68.9408   85.3101   -7.4606 H       1  UNL1        0.2104
     53 H          60.5896   90.2265    6.6482 H       1  UNL1        0.2128
     54 H          58.6522   93.2930    7.2876 H       1  UNL1        0.2103
     55 H          58.9562   95.0539    4.1213 H       1  UNL1        0.2104
     56 H          59.9341   95.7786    0.6909 H       1  UNL1        0.2104
     57 H          61.4638   95.3789   -2.5784 H       1  UNL1        0.2103
     58 H          64.3862   92.8109   -6.3566 H       1  UNL1        0.2104
     59 H          58.6601   90.2767   12.4022 H       1  UNL1        0.2104
     60 C          59.7373   88.0709   11.7218 C.2     1  UNL1        0.0547
     61 O          60.2968   86.9310   12.5203 O.co2   1  UNL1       -0.5490
     62 O          58.8809   88.1022   12.9528 O.co2   1  UNL1       -0.5490
     63 O          61.3927   85.2213   11.4895 O.3     1  UNL1       -0.3266
     64 C          62.3733   84.8412   12.5589 C.3     1  UNL1        0.2647
     65 O          63.1930   85.8997   13.2354 O.3     1  UNL1       -0.3286
     66 C          64.1737   85.5195   14.3049 C.3     1  UNL1        0.1460
     67 C          64.9934   86.5781   14.9814 C.3     1  UNL1        0.0348
     68 C          64.3347   84.0809   14.6979 C.3     1  UNL1        0.1541
     69 O          65.3153   83.7009   15.7674 O.3     1  UNL1       -0.3805
     70 C          63.5150   83.0224   14.0214 C.3     1  UNL1        0.1127
     71 N          63.6760   81.5838   14.4144 N.3     1  UNL1       -0.3181
     72 C          62.5343   83.4025   12.9519 C.3     1  UNL1        0.1835
     73 O          61.7146   82.3440   12.2754 O.3     1  UNL1       -0.3783
     74 H          65.7586   84.4979   16.0977 H       1  UNL1        0.2105
     75 H          63.0460   81.0066   13.8572 H       1  UNL1        0.1190
     76 H          63.4519   81.4744   15.4034 H       1  UNL1        0.1190
     77 H          61.1361   82.7560   11.6148 H       1  UNL1        0.2106
@<TRIPOS>UNITY_ATOM_ATTR
61 1
charge -1
@<TRIPOS>BOND
     1     2     1    1
     2     2     3    1
     3     3     4    1
     4     3     5    1
     5     5     6    1
     6     5     7    1
     7     7     8    2
     8     8     9    1
     9     9    10    2
    10    10    11    1
    11    11    12    2
    12    12    13    1
    13    13    14    2
    14    14    15    1
    15    15    16    2
    16    16    17    1
    17    17    18    2
    18    18    19    1
    19    19    20    2
    20    20    21    1
    21    21    63    1
    22    64    63    1
    23    64    65    1
    24    65    66    1
    25    66    67    1
    26    66    68    1
    27    68    69    1
    28    68    70    1
    29    70    71    1
    30    70    72    1
    31    72    73    1
    32    21    22    1
    33    23    22    1
    34    23    24    1
    35    24    25    1
    36    25    26    1
    37    25    27    1
    38    27    28    1
    39    28    29    1
    40    28    30    1
    41    30    31    1
    42    31    32    1
    43    31    33    1
    44    33    34    1
    45    33    35    1
    46    35    36    1
    47    36    37    1
    48    37    38    1
    49    37    39    1
    50    39    40    1
    51    40    41    1
    52    40    42    1
    53    42    43    1
    54    43    44    2
    55    43    45    1
    56    45    46    1
    57    46    47    1
    58    25    48    1
    59    48    49    1
    60    49    50    1
    61    49    51    1
    62    51    60    1
    63    60    61   ar
    64    60    62   ar
    65    46     2    1
    66    72    64    1
    67    51    23    1
    68     4    52    1
    69    69    74    1
    70    71    75    1
    71    71    76    1
    72    73    77    1
    73    26    53    1
    74    29    54    1
    75    32    55    1
    76    34    56    1
    77    38    57    1
    78    41    58    1
    79    50    59    1
