@<TRIPOS>MOLECULE
*****
 35 40 0 0 0
SMALL
GASTEIGER

@<TRIPOS>ATOM
      1 C          63.2584   90.6180   11.5762 C.3     1  UNL1        0.0799
      2 C          63.5179   91.4859   10.3806 C.3     1  UNL1        0.0178
      3 C          64.6395   92.4815   10.4059 C.3     1  UNL1        0.0029
      4 C          65.5016   92.6093   11.6267 C.3     1  UNL1        0.0178
      5 C          65.2421   91.7414   12.8224 C.3     1  UNL1        0.0795
      6 N          64.1205   90.7458   12.7970 N.3     1  UNL1       -0.1583
      7 C          62.1368   89.6224   11.5509 C.3     1  UNL1        0.0237
      8 C          60.9672   90.5512   11.4115 C.3     1  UNL1        0.0019
      9 C          60.7441   89.0695   11.4802 C.3     1  UNL1        0.0019
     10 C          62.9167   88.3478   11.6815 C.3     1  UNL1        0.0866
     11 O          62.0034   87.3454    9.4654 O.2     1  UNL1       -0.2749
     12 C          62.5492   87.1550   10.8496 C.2     1  UNL1        0.2257
     13 N          62.7274   85.7718   11.4018 N.am    1  UNL1       -0.2794
     14 C          62.3599   84.5790   10.5698 C.3     1  UNL1        0.0947
     15 C          62.5381   83.1958   11.1220 C.3     1  UNL1        0.0360
     16 C          63.0839   83.0053   12.5062 C.3     1  UNL1        0.0465
     17 C          62.8371   81.6181   11.9920 C.3     1  UNL1        0.0316
     18 C          63.3360   81.0492   13.2872 C.3     1  UNL1        0.0698
     19 N          63.5828   82.4366   13.8014 N.3     1  UNL1       -0.2994
     20 C          63.4514   84.1982   13.3381 C.3     1  UNL1        0.0360
     21 C          63.2732   85.5814   12.7860 C.3     1  UNL1        0.0947
     22 H          64.5632   82.6405   13.9955 H       1  UNL1        0.1232
     23 C          66.1042   91.8691   14.0431 C.3     1  UNL1        0.0164
     24 C          67.3946   91.5943   14.7568 C.3     1  UNL1        0.0014
     25 C          66.3069   92.3652   15.4442 C.3     1  UNL1        0.0014
     26 S          63.8609   89.8778   13.9926 S.O2    1  UNL1        0.0632
     27 O          64.6166   88.7814   13.7706 O.2     1  UNL1       -0.1528
     28 O          62.9308   90.9171   14.5450 O.2     1  UNL1       -0.1528
     29 C          63.6013   89.0100   15.1882 C.ar    1  UNL1        0.1222
     30 C          63.8644   87.5350   15.1156 C.ar    1  UNL1        0.0208
     31 C          63.6048   86.6672   16.3111 C.ar    1  UNL1        0.0128
     32 C          63.0821   87.2741   17.5793 C.ar    1  UNL1        0.0578
     33 CL         62.8225   86.4063   18.7748 Cl      1  UNL1       -0.0822
     34 C          62.8190   88.7491   17.6519 C.ar    1  UNL1        0.0128
     35 C          63.0786   89.6171   16.4564 C.ar    1  UNL1        0.0208
@<TRIPOS>BOND
     1    11    12    2
     2    12    10    1
     3    10     7    1
     4     1     7    1
     5     1     2    1
     6     2     3    1
     7     3     4    1
     8     4     5    1
     9     5    23    1
    10    23    24    1
    11    24    25    1
    12     5     6    1
    13     6    26    1
    14    26    27    2
    15    26    28    2
    16    26    29    1
    17    29    30   ar
    18    30    31   ar
    19    31    32   ar
    20    32    33    1
    21    32    34   ar
    22    34    35   ar
    23     7     8    1
    24     8     9    1
    25    12    13   am
    26    13    14    1
    27    14    15    1
    28    15    16    1
    29    16    17    1
    30    17    18    1
    31    18    19    1
    32    16    20    1
    33    20    21    1
    34     9     7    1
    35    21    13    1
    36     6     1    1
    37    35    29   ar
    38    19    16    1
    39    25    23    1
    40    19    22    1
@<TRIPOS>MOLECULE
*****
 35 40 0 0 0
SMALL
GASTEIGER

@<TRIPOS>ATOM
      1 C          60.6408   88.8258    9.7643 C.3     1  UNL1        0.0799
      2 C          59.8935   89.8256    8.9326 C.3     1  UNL1        0.0178
      3 C          59.4987   89.4855    7.5260 C.3     1  UNL1        0.0029
      4 C          59.8512   88.1457    6.9512 C.3     1  UNL1        0.0178
      5 C          60.5985   87.1458    7.7829 C.3     1  UNL1        0.0795
      6 N          60.9933   87.4859    9.1895 N.3     1  UNL1       -0.1583
      7 C          61.0356   89.1659   11.1709 C.3     1  UNL1        0.0237
      8 C          59.6835   89.2024   11.8193 C.3     1  UNL1        0.0019
      9 C          60.9132   89.4777   12.6331 C.3     1  UNL1        0.0019
     10 C          62.5248   89.2475   11.0111 C.3     1  UNL1        0.0866
     11 O          62.9324   91.3491    9.5390 O.2     1  UNL1       -0.2749
     12 C          63.1849   90.5779   10.8006 C.2     1  UNL1        0.2257
     13 N          64.0973   91.1371   11.8515 N.am    1  UNL1       -0.2794
     14 C          64.7574   92.4675   11.6410 C.3     1  UNL1        0.0947
     15 C          65.6699   93.0268   12.6919 C.3     1  UNL1        0.0360
     16 C          65.9224   92.2556   13.9535 C.3     1  UNL1        0.0465
     17 C          66.7340   93.5090   14.0957 C.3     1  UNL1        0.0316
     18 C          67.2128   93.0465   15.4399 C.3     1  UNL1        0.0698
     19 N          66.4012   91.7930   15.2977 N.3     1  UNL1       -0.2994
     20 C          65.2623   90.9252   14.1641 C.3     1  UNL1        0.0360
     21 C          64.3498   90.3659   13.1131 C.3     1  UNL1        0.0947
     22 H          65.6608   91.6952   15.9924 H       1  UNL1        0.1232
     23 C          60.9511   85.8060    7.2081 C.3     1  UNL1        0.0164
     24 C          60.5288   84.4660    6.6827 C.3     1  UNL1        0.0014
     25 C          61.9841   84.8252    6.7379 C.3     1  UNL1        0.0014
     26 S          61.7407   86.4861   10.0213 S.O2    1  UNL1        0.0632
     27 O          60.8375   86.0866   10.9417 O.2     1  UNL1       -0.1528
     28 O          62.9614   86.6943    9.1746 O.2     1  UNL1       -0.1528
     29 C          62.4881   85.4863   10.8530 C.ar    1  UNL1        0.1222
     30 C          62.5596   85.6533   12.3420 C.ar    1  UNL1        0.0208
     31 C          63.3070   84.6535   13.1737 C.ar    1  UNL1        0.0128
     32 C          63.9829   83.4868   12.5166 C.ar    1  UNL1        0.0578
     33 CL         64.7303   82.4870   13.3484 Cl      1  UNL1       -0.0822
     34 C          63.9114   83.3198   11.0277 C.ar    1  UNL1        0.0128
     35 C          63.1640   84.3195   10.1958 C.ar    1  UNL1        0.0208
@<TRIPOS>BOND
     1    11    12    2
     2    12    10    1
     3    10     7    1
     4     1     7    1
     5     1     2    1
     6     2     3    1
     7     3     4    1
     8     4     5    1
     9     5    23    1
    10    23    24    1
    11    24    25    1
    12     5     6    1
    13     6    26    1
    14    26    27    2
    15    26    28    2
    16    26    29    1
    17    29    30   ar
    18    30    31   ar
    19    31    32   ar
    20    32    33    1
    21    32    34   ar
    22    34    35   ar
    23     7     8    1
    24     8     9    1
    25    12    13   am
    26    13    14    1
    27    14    15    1
    28    15    16    1
    29    16    17    1
    30    17    18    1
    31    18    19    1
    32    16    20    1
    33    20    21    1
    34     9     7    1
    35    21    13    1
    36     6     1    1
    37    35    29   ar
    38    19    16    1
    39    25    23    1
    40    19    22    1
@<TRIPOS>MOLECULE
*****
 35 40 0 0 0
SMALL
GASTEIGER

@<TRIPOS>ATOM
      1 C          60.5250   88.4288    9.5162 C.3     1  UNL1        0.0799
      2 C          59.7350   89.4064    8.6975 C.3     1  UNL1        0.0178
      3 C          59.3686   89.0750    7.2812 C.3     1  UNL1        0.0029
      4 C          59.7920   87.7660    6.6836 C.3     1  UNL1        0.0178
      5 C          60.5820   86.7883    7.5023 C.3     1  UNL1        0.0795
      6 N          60.9484   87.1198    8.9185 N.3     1  UNL1       -0.1583
      7 C          60.8914   88.7602   10.9324 C.3     1  UNL1        0.0237
      8 C          59.5282   88.7721   11.5582 C.3     1  UNL1        0.0019
      9 C          60.7401   89.0558   12.3953 C.3     1  UNL1        0.0019
     10 C          62.3818   88.8635   10.7987 C.3     1  UNL1        0.0866
     11 O          63.2906   88.5991   13.2182 O.2     1  UNL1       -0.2749
     12 C          63.2034   89.3819   11.9416 C.2     1  UNL1        0.2257
     13 N          63.9376   90.6830   11.8080 N.am    1  UNL1       -0.2794
     14 C          64.7591   91.2014   12.9509 C.3     1  UNL1        0.0947
     15 C          65.4934   92.5026   12.8174 C.3     1  UNL1        0.0360
     16 C          65.4062   93.2853   11.5407 C.3     1  UNL1        0.0465
     17 C          66.2963   94.0974   12.4340 C.3     1  UNL1        0.0316
     18 C          66.4445   95.1254   11.3517 C.3     1  UNL1        0.0698
     19 N          65.5543   94.3132   10.4584 N.3     1  UNL1       -0.2994
     20 C          64.5846   92.7669   10.3978 C.3     1  UNL1        0.0360
     21 C          63.8503   91.4658   10.5314 C.3     1  UNL1        0.0947
     22 H          66.0135   93.9675    9.6158 H       1  UNL1        0.1232
     23 C          61.0055   85.4794    6.9047 C.3     1  UNL1        0.0164
     24 C          62.0914   84.5292    6.4949 C.3     1  UNL1        0.0014
     25 C          60.6530   84.1622    6.2794 C.3     1  UNL1        0.0014
     26 S          61.7384   86.1421    9.7373 S.O2    1  UNL1        0.0632
     27 O          60.8493   85.6802   10.6421 O.2     1  UNL1       -0.1528
     28 O          62.9535   86.4274    8.9053 O.2     1  UNL1       -0.1528
     29 C          62.5284   85.1646   10.5560 C.ar    1  UNL1        0.1222
     30 C          63.3998   84.1497    9.8774 C.ar    1  UNL1        0.0208
     31 C          64.1898   83.1722   10.6960 C.ar    1  UNL1        0.0128
     32 C          64.1084   83.2094   12.1933 C.ar    1  UNL1        0.0578
     33 CL         64.8983   82.2318   13.0120 Cl      1  UNL1       -0.0822
     34 C          63.2369   84.2242   12.8719 C.ar    1  UNL1        0.0128
     35 C          62.4469   85.2019   12.0533 C.ar    1  UNL1        0.0208
@<TRIPOS>BOND
     1    11    12    2
     2    12    10    1
     3    10     7    1
     4     1     7    1
     5     1     2    1
     6     2     3    1
     7     3     4    1
     8     4     5    1
     9     5    23    1
    10    23    24    1
    11    24    25    1
    12     5     6    1
    13     6    26    1
    14    26    27    2
    15    26    28    2
    16    26    29    1
    17    29    30   ar
    18    30    31   ar
    19    31    32   ar
    20    32    33    1
    21    32    34   ar
    22    34    35   ar
    23     7     8    1
    24     8     9    1
    25    12    13   am
    26    13    14    1
    27    14    15    1
    28    15    16    1
    29    16    17    1
    30    17    18    1
    31    18    19    1
    32    16    20    1
    33    20    21    1
    34     9     7    1
    35    21    13    1
    36     6     1    1
    37    35    29   ar
    38    19    16    1
    39    25    23    1
    40    19    22    1
@<TRIPOS>MOLECULE
*****
 35 40 0 0 0
SMALL
GASTEIGER

@<TRIPOS>ATOM
      1 C          63.5875   88.3079   13.4016 C.3     1  UNL1        0.0799
      2 C          64.4317   88.0237   14.6085 C.3     1  UNL1        0.0178
      3 C          64.8029   86.6106   14.9481 C.3     1  UNL1        0.0029
      4 C          64.3299   85.4818   14.0811 C.3     1  UNL1        0.0178
      5 C          63.4856   85.7659   12.8742 C.3     1  UNL1        0.0795
      6 N          63.1145   87.1790   12.5345 N.3     1  UNL1       -0.1583
      7 C          63.2163   89.7210   13.0619 C.3     1  UNL1        0.0237
      8 C          61.7414   89.6746   13.3307 C.3     1  UNL1        0.0019
      9 C          62.3776   90.9476   12.8565 C.3     1  UNL1        0.0019
     10 C          64.5624   90.2582   12.6751 C.3     1  UNL1        0.0866
     11 O          65.0379   91.8164   14.6989 O.2     1  UNL1       -0.2749
     12 C          65.0282   91.5765   13.2182 C.2     1  UNL1        0.2257
     13 N          65.4842   92.6549   12.2807 N.am    1  UNL1       -0.2794
     14 C          65.9501   93.9732   12.8238 C.3     1  UNL1        0.0947
     15 C          66.4061   95.0517   11.8863 C.3     1  UNL1        0.0360
     16 C          66.3964   94.8118   10.4056 C.3     1  UNL1        0.0465
     17 C          66.9130   96.2105   10.5689 C.3     1  UNL1        0.0316
     18 C          67.0414   96.3369    9.0797 C.3     1  UNL1        0.0698
     19 N          66.5247   94.9382    8.9165 N.3     1  UNL1       -0.2994
     20 C          65.9306   93.4935    9.8625 C.3     1  UNL1        0.0360
     21 C          65.4745   92.4150   10.8000 C.3     1  UNL1        0.0947
     22 H          67.1955   94.2924    8.5000 H       1  UNL1        0.1232
     23 C          63.0126   84.6372   12.0071 C.3     1  UNL1        0.0164
     24 C          62.3461   83.3011   11.8629 C.3     1  UNL1        0.0014
     25 C          62.8596   84.0179   10.6494 C.3     1  UNL1        0.0014
     26 S          62.2702   87.4633   11.3276 S.O2    1  UNL1        0.0632
     27 O          63.0966   88.1414   10.5032 O.2     1  UNL1       -0.1528
     28 O          61.1133   86.7576   11.9708 O.2     1  UNL1       -0.1528
     29 C          61.4259   87.7475   10.1208 C.ar    1  UNL1        0.1222
     30 C          60.9348   86.6170    9.2660 C.ar    1  UNL1        0.0208
     31 C          60.0905   86.9013    8.0592 C.ar    1  UNL1        0.0128
     32 C          59.7373   88.3159    7.7072 C.ar    1  UNL1        0.0578
     33 CL         58.8931   88.6001    6.5004 Cl      1  UNL1       -0.0822
     34 C          60.2285   89.4464    8.5620 C.ar    1  UNL1        0.0128
     35 C          61.0727   89.1623    9.7689 C.ar    1  UNL1        0.0208
@<TRIPOS>BOND
     1    11    12    2
     2    12    10    1
     3    10     7    1
     4     1     7    1
     5     1     2    1
     6     2     3    1
     7     3     4    1
     8     4     5    1
     9     5    23    1
    10    23    24    1
    11    24    25    1
    12     5     6    1
    13     6    26    1
    14    26    27    2
    15    26    28    2
    16    26    29    1
    17    29    30   ar
    18    30    31   ar
    19    31    32   ar
    20    32    33    1
    21    32    34   ar
    22    34    35   ar
    23     7     8    1
    24     8     9    1
    25    12    13   am
    26    13    14    1
    27    14    15    1
    28    15    16    1
    29    16    17    1
    30    17    18    1
    31    18    19    1
    32    16    20    1
    33    20    21    1
    34     9     7    1
    35    21    13    1
    36     6     1    1
    37    35    29   ar
    38    19    16    1
    39    25    23    1
    40    19    22    1
@<TRIPOS>MOLECULE
*****
 35 40 0 0 0
SMALL
GASTEIGER

@<TRIPOS>ATOM
      1 C          64.3465   90.1825   14.9801 C.3     1  UNL1        0.0799
      2 C          65.3537   90.8756   15.8492 C.3     1  UNL1        0.0178
      3 C          66.2182   91.9597   15.2770 C.3     1  UNL1        0.0029
      4 C          66.0755   92.3507   13.8360 C.3     1  UNL1        0.0178
      5 C          65.0683   91.6576   12.9669 C.3     1  UNL1        0.0795
      6 N          64.2038   90.5736   13.5391 N.3     1  UNL1       -0.1583
      7 C          63.4820   89.0984   15.5523 C.3     1  UNL1        0.0237
      8 C          62.4786   89.9301   16.2949 C.3     1  UNL1        0.0019
      9 C          62.3732   88.4339   16.3134 C.3     1  UNL1        0.0019
     10 C          64.1851   87.8901   15.0085 C.3     1  UNL1        0.0866
     11 O          63.9148   86.3657   17.0948 O.2     1  UNL1       -0.2749
     12 C          63.9243   86.5387   15.6049 C.2     1  UNL1        0.2257
     13 N          63.6730   85.3605   14.7113 N.am    1  UNL1       -0.2794
     14 C          63.4122   84.0091   15.3078 C.3     1  UNL1        0.0947
     15 C          63.1608   82.8307   14.4143 C.3     1  UNL1        0.0360
     16 C          63.1703   83.0038   12.9243 C.3     1  UNL1        0.0465
     17 C          62.8823   81.5483   13.1443 C.3     1  UNL1        0.0316
     18 C          62.8149   81.3374   11.6607 C.3     1  UNL1        0.0698
     19 N          63.1030   82.7930   11.4407 N.3     1  UNL1       -0.2994
     20 C          63.4311   84.3551   12.3279 C.3     1  UNL1        0.0360
     21 C          63.6825   85.5335   13.2214 C.3     1  UNL1        0.0947
     22 H          62.3478   83.3022   10.9817 H       1  UNL1        0.1232
     23 C          64.9256   92.0486   11.5260 C.3     1  UNL1        0.0164
     24 C          65.4243   92.8026   10.3290 C.3     1  UNL1        0.0014
     25 C          64.1796   91.9719   10.2268 C.3     1  UNL1        0.0014
     26 S          63.1965   89.8804   12.6701 S.O2    1  UNL1        0.0632
     27 O          63.8338   88.7639   12.2581 O.2     1  UNL1       -0.1528
     28 O          62.2156   90.9862   12.9253 O.2     1  UNL1       -0.1528
     29 C          62.1893   89.1874   11.8012 C.ar    1  UNL1        0.1222
     30 C          62.6046   88.0195   10.9565 C.ar    1  UNL1        0.0208
     31 C          61.5974   87.3265   10.0875 C.ar    1  UNL1        0.0128
     32 C          60.1747   87.8012   10.0633 C.ar    1  UNL1        0.0578
     33 CL         59.1675   87.1082    9.1943 Cl      1  UNL1       -0.0822
     34 C          59.7593   88.9691   10.9080 C.ar    1  UNL1        0.0128
     35 C          60.7666   89.6622   11.7770 C.ar    1  UNL1        0.0208
@<TRIPOS>BOND
     1    11    12    2
     2    12    10    1
     3    10     7    1
     4     1     7    1
     5     1     2    1
     6     2     3    1
     7     3     4    1
     8     4     5    1
     9     5    23    1
    10    23    24    1
    11    24    25    1
    12     5     6    1
    13     6    26    1
    14    26    27    2
    15    26    28    2
    16    26    29    1
    17    29    30   ar
    18    30    31   ar
    19    31    32   ar
    20    32    33    1
    21    32    34   ar
    22    34    35   ar
    23     7     8    1
    24     8     9    1
    25    12    13   am
    26    13    14    1
    27    14    15    1
    28    15    16    1
    29    16    17    1
    30    17    18    1
    31    18    19    1
    32    16    20    1
    33    20    21    1
    34     9     7    1
    35    21    13    1
    36     6     1    1
    37    35    29   ar
    38    19    16    1
    39    25    23    1
    40    19    22    1
@<TRIPOS>MOLECULE
*****
 35 40 0 0 0
SMALL
GASTEIGER

@<TRIPOS>ATOM
      1 C          62.1101   86.8157   10.4374 C.3     1  UNL1        0.0799
      2 C          62.0710   86.6820    8.9438 C.3     1  UNL1        0.0178
      3 C          62.6647   85.4731    8.2833 C.3     1  UNL1        0.0029
      4 C          63.2975   84.3981    9.1162 C.3     1  UNL1        0.0178
      5 C          63.3366   84.5318   10.6098 C.3     1  UNL1        0.0795
      6 N          62.7429   85.7406   11.2703 N.3     1  UNL1       -0.1583
      7 C          61.5164   88.0245   11.0978 C.3     1  UNL1        0.0237
      8 C          60.0757   87.8464   10.7202 C.3     1  UNL1        0.0019
      9 C          60.4939   89.0257   11.5475 C.3     1  UNL1        0.0019
     10 C          62.7509   88.6225   11.7048 C.3     1  UNL1        0.0866
     11 O          62.8187   90.4962    9.9063 O.2     1  UNL1       -0.2749
     12 C          63.2388   89.9641   11.2444 C.2     1  UNL1        0.2257
     13 N          64.1467   90.7737   12.1220 N.am    1  UNL1       -0.2794
     14 C          64.6346   92.1153   11.6616 C.3     1  UNL1        0.0947
     15 C          65.5426   92.9249   12.5391 C.3     1  UNL1        0.0360
     16 C          65.9627   92.3928   13.8772 C.3     1  UNL1        0.0465
     17 C          66.6324   93.7301   13.7635 C.3     1  UNL1        0.0316
     18 C          67.2468   93.5376   15.1184 C.3     1  UNL1        0.0698
     19 N          66.5770   92.2002   15.2320 N.3     1  UNL1       -0.2994
     20 C          65.4748   91.0512   14.3376 C.3     1  UNL1        0.0360
     21 C          64.5669   90.2416   13.4601 C.3     1  UNL1        0.0947
     22 H          65.8991   92.1372   15.9915 H       1  UNL1        0.1232
     23 C          63.9693   83.4568   11.4427 C.3     1  UNL1        0.0164
     24 C          64.4656   82.0488   11.5878 C.3     1  UNL1        0.0014
     25 C          64.5690   83.0028   12.7406 C.3     1  UNL1        0.0014
     26 S          62.7820   85.8744   12.7639 S.O2    1  UNL1        0.0632
     27 O          63.8840   86.6186   12.9964 O.2     1  UNL1       -0.1528
     28 O          61.5296   85.0555   12.8699 O.2     1  UNL1       -0.1528
     29 C          62.8210   86.0082   14.2573 C.ar    1  UNL1        0.1222
     30 C          63.5257   87.1725   14.8879 C.ar    1  UNL1        0.0208
     31 C          63.5647   87.3063   16.3814 C.ar    1  UNL1        0.0128
     32 C          62.8990   86.2758   17.2444 C.ar    1  UNL1        0.0578
     33 CL         62.9380   86.4095   18.7379 Cl      1  UNL1       -0.0822
     34 C          62.1943   85.1114   16.6138 C.ar    1  UNL1        0.0128
     35 C          62.1552   84.9776   15.1203 C.ar    1  UNL1        0.0208
@<TRIPOS>BOND
     1    11    12    2
     2    12    10    1
     3    10     7    1
     4     1     7    1
     5     1     2    1
     6     2     3    1
     7     3     4    1
     8     4     5    1
     9     5    23    1
    10    23    24    1
    11    24    25    1
    12     5     6    1
    13     6    26    1
    14    26    27    2
    15    26    28    2
    16    26    29    1
    17    29    30   ar
    18    30    31   ar
    19    31    32   ar
    20    32    33    1
    21    32    34   ar
    22    34    35   ar
    23     7     8    1
    24     8     9    1
    25    12    13   am
    26    13    14    1
    27    14    15    1
    28    15    16    1
    29    16    17    1
    30    17    18    1
    31    18    19    1
    32    16    20    1
    33    20    21    1
    34     9     7    1
    35    21    13    1
    36     6     1    1
    37    35    29   ar
    38    19    16    1
    39    25    23    1
    40    19    22    1
@<TRIPOS>MOLECULE
*****
 35 40 0 0 0
SMALL
GASTEIGER

@<TRIPOS>ATOM
      1 C          59.8601   93.6877   -0.3730 C.3     1  UNL1        0.0799
      2 C          59.0838   93.2697    0.8405 C.3     1  UNL1        0.0178
      3 C          59.7962   93.0172    2.1362 C.3     1  UNL1        0.0029
      4 C          61.2847   93.1827    2.2184 C.3     1  UNL1        0.0178
      5 C          62.0610   93.6008    1.0048 C.3     1  UNL1        0.0795
      6 N          61.3486   93.8533   -0.2908 N.3     1  UNL1       -0.1583
      7 C          59.1477   93.9402   -1.6687 C.3     1  UNL1        0.0237
      8 C          59.3813   92.6268   -2.3545 C.3     1  UNL1        0.0019
      9 C          58.6023   93.7060   -3.0463 C.3     1  UNL1        0.0019
     10 C          58.6667   95.3413   -1.4329 C.3     1  UNL1        0.0866
     11 O          58.7386   96.8559   -3.5426 O.2     1  UNL1       -0.2749
     12 C          57.9537   96.0832   -2.5243 C.2     1  UNL1        0.2257
     13 N          56.4558   96.0524   -2.5974 N.am    1  UNL1       -0.2794
     14 C          55.7428   96.7943   -3.6888 C.3     1  UNL1        0.0947
     15 C          54.2449   96.7635   -3.7621 C.3     1  UNL1        0.0360
     16 C          53.4600   95.9908   -2.7438 C.3     1  UNL1        0.0465
     17 C          52.4302   96.5873   -3.6567 C.3     1  UNL1        0.0316
     18 C          51.3417   95.9472   -2.8472 C.3     1  UNL1        0.0698
     19 N          52.3716   95.3506   -1.9342 N.3     1  UNL1       -0.2994
     20 C          54.1730   95.2489   -1.6524 C.3     1  UNL1        0.0360
     21 C          55.6709   95.2796   -1.5792 C.3     1  UNL1        0.0947
     22 H          52.3929   94.3309   -1.9404 H       1  UNL1        0.1232
     23 C          63.5495   93.7663    1.0870 C.3     1  UNL1        0.0164
     24 C          64.9301   93.2980    0.7341 C.3     1  UNL1        0.0014
     25 C          64.7472   94.5216    1.5822 C.3     1  UNL1        0.0014
     26 S          62.1249   94.2713   -1.5044 S.O2    1  UNL1        0.0632
     27 O          62.4632   93.1048   -2.0936 O.2     1  UNL1       -0.1528
     28 O          61.9310   95.7115   -1.1322 O.2     1  UNL1       -0.1528
     29 C          62.9010   94.6894   -2.7179 C.ar    1  UNL1        0.1222
     30 C          62.3343   94.4579   -4.0873 C.ar    1  UNL1        0.0208
     31 C          63.1104   94.8760   -5.3008 C.ar    1  UNL1        0.0128
     32 C          64.4534   95.5256   -5.1451 C.ar    1  UNL1        0.0578
     33 CL         65.2296   95.9437   -6.3586 Cl      1  UNL1       -0.0822
     34 C          65.0202   95.7572   -3.7758 C.ar    1  UNL1        0.0128
     35 C          64.2441   95.3391   -2.5622 C.ar    1  UNL1        0.0208
@<TRIPOS>BOND
     1    11    12    2
     2    12    10    1
     3    10     7    1
     4     1     7    1
     5     1     2    1
     6     2     3    1
     7     3     4    1
     8     4     5    1
     9     5    23    1
    10    23    24    1
    11    24    25    1
    12     5     6    1
    13     6    26    1
    14    26    27    2
    15    26    28    2
    16    26    29    1
    17    29    30   ar
    18    30    31   ar
    19    31    32   ar
    20    32    33    1
    21    32    34   ar
    22    34    35   ar
    23     7     8    1
    24     8     9    1
    25    12    13   am
    26    13    14    1
    27    14    15    1
    28    15    16    1
    29    16    17    1
    30    17    18    1
    31    18    19    1
    32    16    20    1
    33    20    21    1
    34     9     7    1
    35    21    13    1
    36     6     1    1
    37    35    29   ar
    38    19    16    1
    39    25    23    1
    40    19    22    1
@<TRIPOS>MOLECULE
*****
 35 40 0 0 0
SMALL
GASTEIGER

@<TRIPOS>ATOM
      1 C          59.7226   93.7970    0.2064 C.3     1  UNL1        0.0799
      2 C          59.0337   93.2040    1.3997 C.3     1  UNL1        0.0178
      3 C          59.8416   92.7054    2.5609 C.3     1  UNL1        0.0029
      4 C          61.3383   92.7997    2.5290 C.3     1  UNL1        0.0178
      5 C          62.0272   93.3927    1.3357 C.3     1  UNL1        0.0795
      6 N          61.2192   93.8913    0.1745 N.3     1  UNL1       -0.1583
      7 C          58.9146   94.2956   -0.9549 C.3     1  UNL1        0.0237
      8 C          58.6320   95.6947   -0.4939 C.3     1  UNL1        0.0019
      9 C          58.1059   95.2200   -1.8160 C.3     1  UNL1        0.0019
     10 C          58.9166   93.0697   -1.8193 C.3     1  UNL1        0.0866
     11 O          59.8792   94.0478   -4.0253 O.2     1  UNL1       -0.2749
     12 C          58.8641   93.2045   -3.3123 C.2     1  UNL1        0.2257
     13 N          57.7966   92.4961   -4.0922 N.am    1  UNL1       -0.2794
     14 C          57.7441   92.6309   -5.5852 C.3     1  UNL1        0.0947
     15 C          56.6765   91.9225   -6.3652 C.3     1  UNL1        0.0360
     16 C          55.6614   91.0791   -5.6522 C.3     1  UNL1        0.0465
     17 C          55.2995   90.9775   -7.1043 C.3     1  UNL1        0.0316
     18 C          54.1516   90.0772   -6.7552 C.3     1  UNL1        0.0698
     19 N          54.5136   90.1789   -5.3030 N.3     1  UNL1       -0.2994
     20 C          55.7139   90.9443   -4.1592 C.3     1  UNL1        0.0360
     21 C          56.7814   91.6527   -3.3792 C.3     1  UNL1        0.0947
     22 H          54.7924   89.2934   -4.8804 H       1  UNL1        0.1232
     23 C          63.5237   93.4870    1.3037 C.3     1  UNL1        0.0164
     24 C          64.8538   92.9099    0.9193 C.3     1  UNL1        0.0014
     25 C          64.7861   94.2276    1.6328 C.3     1  UNL1        0.0014
     26 S          61.9080   94.4843   -1.0189 S.O2    1  UNL1        0.0632
     27 O          61.9493   95.8063   -0.7487 O.2     1  UNL1       -0.1528
     28 O          62.0325   93.1182   -1.6258 O.2     1  UNL1       -0.1528
     29 C          62.5968   95.0772   -2.2122 C.ar    1  UNL1        0.1222
     30 C          63.8832   94.4852   -2.7066 C.ar    1  UNL1        0.0208
     31 C          64.5720   95.0781   -3.8999 C.ar    1  UNL1        0.0128
     32 C          63.9743   96.2630   -4.5989 C.ar    1  UNL1        0.0578
     33 CL         64.6631   96.8560   -5.7922 Cl      1  UNL1       -0.0822
     34 C          62.6879   96.8551   -4.1045 C.ar    1  UNL1        0.0128
     35 C          61.9990   96.2622   -2.9112 C.ar    1  UNL1        0.0208
@<TRIPOS>BOND
     1    11    12    2
     2    12    10    1
     3    10     7    1
     4     1     7    1
     5     1     2    1
     6     2     3    1
     7     3     4    1
     8     4     5    1
     9     5    23    1
    10    23    24    1
    11    24    25    1
    12     5     6    1
    13     6    26    1
    14    26    27    2
    15    26    28    2
    16    26    29    1
    17    29    30   ar
    18    30    31   ar
    19    31    32   ar
    20    32    33    1
    21    32    34   ar
    22    34    35   ar
    23     7     8    1
    24     8     9    1
    25    12    13   am
    26    13    14    1
    27    14    15    1
    28    15    16    1
    29    16    17    1
    30    17    18    1
    31    18    19    1
    32    16    20    1
    33    20    21    1
    34     9     7    1
    35    21    13    1
    36     6     1    1
    37    35    29   ar
    38    19    16    1
    39    25    23    1
    40    19    22    1
@<TRIPOS>MOLECULE
*****
 35 40 0 0 0
SMALL
GASTEIGER

@<TRIPOS>ATOM
      1 C          63.5160   90.1176   13.1854 C.3     1  UNL1        0.0799
      2 C          62.3762   89.6082   12.3539 C.3     1  UNL1        0.0178
      3 C          62.1742   90.1259   10.9607 C.3     1  UNL1        0.0029
      4 C          63.1120   91.1529   10.3988 C.3     1  UNL1        0.0178
      5 C          64.2519   91.6623   11.2302 C.3     1  UNL1        0.0795
      6 N          64.4538   91.1447   12.6235 N.3     1  UNL1       -0.1583
      7 C          63.7180   89.6000   14.5786 C.3     1  UNL1        0.0237
      8 C          63.3617   90.8259   15.3661 C.3     1  UNL1        0.0019
      9 C          63.7718   89.5705   16.0774 C.3     1  UNL1        0.0019
     10 C          64.1444   88.1943   14.2751 C.3     1  UNL1        0.0866
     11 O          63.4787   87.2970   16.6207 O.2     1  UNL1       -0.2749
     12 C          63.6904   87.0664   15.1537 C.2     1  UNL1        0.2257
     13 N          63.4482   85.7081   14.5653 N.am    1  UNL1       -0.2794
     14 C          62.9942   84.5803   15.4438 C.3     1  UNL1        0.0947
     15 C          62.7519   83.2220   14.8555 C.3     1  UNL1        0.0360
     16 C          62.9636   82.9914   13.3885 C.3     1  UNL1        0.0465
     17 C          62.5206   81.6647   13.9300 C.3     1  UNL1        0.0316
     18 C          62.6210   81.0704   12.5563 C.3     1  UNL1        0.0698
     19 N          63.0641   82.3973   12.0148 N.3     1  UNL1       -0.2994
     20 C          63.4176   84.1193   12.5099 C.3     1  UNL1        0.0360
     21 C          63.6599   85.4776   13.0983 C.3     1  UNL1        0.0947
     22 H          62.4213   82.8059   11.3364 H       1  UNL1        0.1232
     23 C          65.1896   92.6893   10.6685 C.3     1  UNL1        0.0164
     24 C          65.5187   94.1215   10.3676 C.3     1  UNL1        0.0014
     25 C          66.4850   93.0361    9.9962 C.3     1  UNL1        0.0014
     26 S          65.5937   91.6541   13.4550 S.O2    1  UNL1        0.0632
     27 O          65.1646   92.8556   13.8964 O.2     1  UNL1       -0.1528
     28 O          66.3692   90.4052   13.1569 O.2     1  UNL1       -0.1528
     29 C          66.7335   92.1634   14.2865 C.ar    1  UNL1        0.1222
     30 C          66.4645   92.8043   15.6157 C.ar    1  UNL1        0.0208
     31 C          67.6043   93.3137   16.4471 C.ar    1  UNL1        0.0128
     32 C          69.0132   93.1821   15.9495 C.ar    1  UNL1        0.0578
     33 CL         70.1530   93.6914   16.7809 Cl      1  UNL1       -0.0822
     34 C          69.2822   92.5411   14.6203 C.ar    1  UNL1        0.0128
     35 C          68.1424   92.0318   13.7887 C.ar    1  UNL1        0.0208
@<TRIPOS>BOND
     1    11    12    2
     2    12    10    1
     3    10     7    1
     4     1     7    1
     5     1     2    1
     6     2     3    1
     7     3     4    1
     8     4     5    1
     9     5    23    1
    10    23    24    1
    11    24    25    1
    12     5     6    1
    13     6    26    1
    14    26    27    2
    15    26    28    2
    16    26    29    1
    17    29    30   ar
    18    30    31   ar
    19    31    32   ar
    20    32    33    1
    21    32    34   ar
    22    34    35   ar
    23     7     8    1
    24     8     9    1
    25    12    13   am
    26    13    14    1
    27    14    15    1
    28    15    16    1
    29    16    17    1
    30    17    18    1
    31    18    19    1
    32    16    20    1
    33    20    21    1
    34     9     7    1
    35    21    13    1
    36     6     1    1
    37    35    29   ar
    38    19    16    1
    39    25    23    1
    40    19    22    1
