@<TRIPOS>MOLECULE
*****
 29 32 0 0 0
SMALL
GASTEIGER

@<TRIPOS>ATOM
      1 N          62.4127   87.1511   11.3591 N.ar    1  UNL1       -0.3048
      2 C          62.7485   85.7096   11.6025 C.ar    1  UNL1        0.0833
      3 C          63.5733   85.6305   12.8529 C.ar    1  UNL1        0.0601
      4 C          63.7472   87.0232   13.3823 C.ar    1  UNL1        0.0481
      5 C          64.4660   87.5569   14.5858 C.ar    1  UNL1        0.1416
      6 F          65.1833   86.6171   15.5090 F       1  UNL1       -0.2041
      7 C          64.4676   89.0305   14.8661 C.ar    1  UNL1        0.0297
      8 C          63.7503   89.9703   13.9429 C.ar    1  UNL1        0.0038
      9 C          63.0315   89.4365   12.7394 C.ar    1  UNL1        0.0177
     10 C          63.0299   87.9630   12.4591 C.ar    1  UNL1        0.0663
     11 C          59.9806   88.7581    7.9309 C.ar    1  UNL1        0.0141
     12 C          60.5820   89.7009    8.9307 C.ar    1  UNL1        0.0026
     13 C          61.3927   89.1652   10.0734 C.ar    1  UNL1        0.0176
     14 C          61.6020   87.6868   10.2164 C.ar    1  UNL1        0.0640
     15 C          61.0006   86.7440    9.2166 C.ar    1  UNL1        0.0176
     16 C          60.1899   87.2797    8.0739 C.ar    1  UNL1        0.0026
     17 O          57.6935   89.0358    6.7303 O.co2   1  UNL1       -0.5446
     18 C          59.1699   89.2938    6.7882 C.2     1  UNL1        0.0729
     19 O          59.8357   90.0875    5.7034 O.co2   1  UNL1       -0.5446
     20 C          64.1270   84.3786   13.4662 C.2     1  UNL1        0.1987
     21 O          65.4631   84.4045   14.1472 O.2     1  UNL1       -0.2865
     22 C          63.3443   83.1006   13.3984 C.ar    1  UNL1        0.0601
     23 C          62.3698   82.7594   14.4864 C.ar    1  UNL1        0.0615
     24 CL         62.1779   83.6961   15.6422 Cl      1  UNL1       -0.0821
     25 C          61.5872   81.4815   14.4187 C.ar    1  UNL1        0.0115
     26 C          61.7792   80.5449   13.2629 C.ar    1  UNL1        0.0017
     27 C          62.7537   80.8862   12.1749 C.ar    1  UNL1        0.0115
     28 C          63.5363   82.1640   12.2426 C.ar    1  UNL1        0.0615
     29 CL         64.5109   82.5053   11.1546 Cl      1  UNL1       -0.0821
@<TRIPOS>UNITY_ATOM_ATTR
17 1
charge -1
@<TRIPOS>BOND
     1    17    18   ar
     2    18    19   ar
     3    18    11    1
     4    11    12   ar
     5    12    13   ar
     6    13    14   ar
     7    14     1    1
     8     1     2   ar
     9     2     3   ar
    10     3    20    1
    11    20    21    2
    12    20    22    1
    13    22    23   ar
    14    23    24    1
    15    23    25   ar
    16    25    26   ar
    17    26    27   ar
    18    27    28   ar
    19    28    29    1
    20     3     4   ar
    21     4     5   ar
    22     5     6    1
    23     5     7   ar
    24     7     8   ar
    25     8     9   ar
    26     9    10   ar
    27    14    15   ar
    28    15    16   ar
    29    16    11   ar
    30    10     1   ar
    31    28    22   ar
    32    10     4   ar
@<TRIPOS>MOLECULE
*****
 29 32 0 0 0
SMALL
GASTEIGER

@<TRIPOS>ATOM
      1 N          62.4095   87.1653   11.3570 N.ar    1  UNL1       -0.3048
      2 C          62.7475   85.7242   11.6001 C.ar    1  UNL1        0.0833
      3 C          63.5708   85.6460   12.8515 C.ar    1  UNL1        0.0601
      4 C          63.7416   87.0386   13.3819 C.ar    1  UNL1        0.0481
      5 C          64.4579   87.5730   14.5866 C.ar    1  UNL1        0.1416
      6 F          65.1756   86.6340   15.5102 F       1  UNL1       -0.2041
      7 C          64.4565   89.0464   14.8675 C.ar    1  UNL1        0.0297
      8 C          63.7389   89.9855   13.9439 C.ar    1  UNL1        0.0038
      9 C          63.0225   89.4511   12.7392 C.ar    1  UNL1        0.0177
     10 C          63.0239   87.9776   12.4582 C.ar    1  UNL1        0.0663
     11 C          59.9792   88.7700    7.9264 C.ar    1  UNL1        0.0141
     12 C          60.1896   87.2917    8.0698 C.ar    1  UNL1        0.0026
     13 C          60.9997   86.7569    9.2133 C.ar    1  UNL1        0.0176
     14 C          61.5994   87.7001   10.2135 C.ar    1  UNL1        0.0640
     15 C          61.3890   89.1785   10.0702 C.ar    1  UNL1        0.0176
     16 C          60.5789   89.7133    8.9266 C.ar    1  UNL1        0.0026
     17 O          57.6926   89.0469    6.7246 O.co2   1  UNL1       -0.5446
     18 C          59.1691   89.3048    6.7829 C.2     1  UNL1        0.0729
     19 O          59.8355   90.0975    5.6978 O.co2   1  UNL1       -0.5446
     20 C          64.1258   84.3947   13.4650 C.2     1  UNL1        0.1987
     21 O          65.4620   84.4220   14.1457 O.2     1  UNL1       -0.2865
     22 C          63.3444   83.1160   13.3976 C.ar    1  UNL1        0.0601
     23 C          63.5411   82.1767   12.2448 C.ar    1  UNL1        0.0615
     24 CL         64.5192   82.5161   11.1593 Cl      1  UNL1       -0.0821
     25 C          62.7598   80.8980   12.1774 C.ar    1  UNL1        0.0115
     26 C          61.7818   80.5587   13.2629 C.ar    1  UNL1        0.0017
     27 C          61.5851   81.4979   14.4157 C.ar    1  UNL1        0.0115
     28 C          62.3664   82.7766   14.4831 C.ar    1  UNL1        0.0615
     29 CL         62.1697   83.7159   15.6359 Cl      1  UNL1       -0.0821
@<TRIPOS>UNITY_ATOM_ATTR
17 1
charge -1
@<TRIPOS>BOND
     1    17    18   ar
     2    18    19   ar
     3    18    11    1
     4    11    12   ar
     5    12    13   ar
     6    13    14   ar
     7    14     1    1
     8     1     2   ar
     9     2     3   ar
    10     3    20    1
    11    20    21    2
    12    20    22    1
    13    22    23   ar
    14    23    24    1
    15    23    25   ar
    16    25    26   ar
    17    26    27   ar
    18    27    28   ar
    19    28    29    1
    20     3     4   ar
    21     4     5   ar
    22     5     6    1
    23     5     7   ar
    24     7     8   ar
    25     8     9   ar
    26     9    10   ar
    27    14    15   ar
    28    15    16   ar
    29    16    11   ar
    30    10     1   ar
    31    28    22   ar
    32    10     4   ar
@<TRIPOS>MOLECULE
*****
 29 32 0 0 0
SMALL
GASTEIGER

@<TRIPOS>ATOM
      1 N          62.0138   86.3037   11.4541 N.ar    1  UNL1       -0.3048
      2 C          62.3089   87.5671   12.2069 C.ar    1  UNL1        0.0833
      3 C          61.7985   88.7204   11.3949 C.ar    1  UNL1        0.0601
      4 C          61.1880   88.1699   10.1402 C.ar    1  UNL1        0.0481
      5 C          60.5282   88.8356    8.9692 C.ar    1  UNL1        0.1416
      6 F          60.3951   90.3292    8.9326 F       1  UNL1       -0.2041
      7 C          60.0014   88.0077    7.8347 C.ar    1  UNL1        0.0297
      8 C          60.1345   86.5140    7.8713 C.ar    1  UNL1        0.0038
      9 C          60.7943   85.8483    9.0423 C.ar    1  UNL1        0.0177
     10 C          61.3211   86.6762   10.1768 C.ar    1  UNL1        0.0663
     11 C          63.0286   82.1288   12.7923 C.ar    1  UNL1        0.0141
     12 C          62.5972   83.1548   13.7979 C.ar    1  UNL1        0.0026
     13 C          62.2590   84.5464   13.3518 C.ar    1  UNL1        0.0176
     14 C          62.3521   84.9121   11.9002 C.ar    1  UNL1        0.0640
     15 C          62.7835   83.8861   10.8944 C.ar    1  UNL1        0.0176
     16 C          63.1217   82.4945   11.3405 C.ar    1  UNL1        0.0026
     17 O          64.2974   80.5261   14.3958 O.co2   1  UNL1       -0.5446
     18 C          63.3669   80.7372   13.2384 C.2     1  UNL1        0.0729
     19 O          62.7746   79.5568   12.5271 O.co2   1  UNL1       -0.5446
     20 C          61.8836   90.1699   11.7714 C.2     1  UNL1        0.1987
     21 O          60.6373   91.0016   11.8397 O.2     1  UNL1       -0.2865
     22 C          63.2154   90.7878   12.0797 C.ar    1  UNL1        0.0601
     23 C          63.9671   91.5224   11.0095 C.ar    1  UNL1        0.0615
     24 CL         63.3871   91.6391    9.6310 Cl      1  UNL1       -0.0821
     25 C          65.2987   92.1402   11.3177 C.ar    1  UNL1        0.0115
     26 C          65.8786   92.0235   12.6961 C.ar    1  UNL1        0.0017
     27 C          65.1269   91.2889   13.7663 C.ar    1  UNL1        0.0115
     28 C          63.7953   90.6710   13.4581 C.ar    1  UNL1        0.0615
     29 CL         63.0435   89.9365   14.5283 Cl      1  UNL1       -0.0821
@<TRIPOS>UNITY_ATOM_ATTR
17 1
charge -1
@<TRIPOS>BOND
     1    17    18   ar
     2    18    19   ar
     3    18    11    1
     4    11    12   ar
     5    12    13   ar
     6    13    14   ar
     7    14     1    1
     8     1     2   ar
     9     2     3   ar
    10     3    20    1
    11    20    21    2
    12    20    22    1
    13    22    23   ar
    14    23    24    1
    15    23    25   ar
    16    25    26   ar
    17    26    27   ar
    18    27    28   ar
    19    28    29    1
    20     3     4   ar
    21     4     5   ar
    22     5     6    1
    23     5     7   ar
    24     7     8   ar
    25     8     9   ar
    26     9    10   ar
    27    14    15   ar
    28    15    16   ar
    29    16    11   ar
    30    10     1   ar
    31    28    22   ar
    32    10     4   ar
@<TRIPOS>MOLECULE
*****
 29 32 0 0 0
SMALL
GASTEIGER

@<TRIPOS>ATOM
      1 N          62.0121   86.3079   11.4538 N.ar    1  UNL1       -0.3048
      2 C          62.3089   87.5710   12.2066 C.ar    1  UNL1        0.0833
      3 C          61.7983   88.7248   11.3954 C.ar    1  UNL1        0.0601
      4 C          61.1859   88.1749   10.1414 C.ar    1  UNL1        0.0481
      5 C          60.5250   88.8413    8.9713 C.ar    1  UNL1        0.1416
      6 F          60.3929   90.3350    8.9352 F       1  UNL1       -0.2041
      7 C          59.9963   88.0139    7.8373 C.ar    1  UNL1        0.0297
      8 C          60.1285   86.5202    7.8734 C.ar    1  UNL1        0.0038
      9 C          60.7894   85.8538    9.0435 C.ar    1  UNL1        0.0177
     10 C          61.3181   86.6811   10.1775 C.ar    1  UNL1        0.0663
     11 C          63.0259   82.1321   12.7899 C.ar    1  UNL1        0.0141
     12 C          62.5967   83.1582   13.7963 C.ar    1  UNL1        0.0026
     13 C          62.2588   84.5501   13.3509 C.ar    1  UNL1        0.0176
     14 C          62.3501   84.9160   11.8992 C.ar    1  UNL1        0.0640
     15 C          62.7793   83.8899   10.8927 C.ar    1  UNL1        0.0176
     16 C          63.1172   82.4980   11.3381 C.ar    1  UNL1        0.0026
     17 O          64.2855   80.5284   14.3995 O.co2   1  UNL1       -0.5446
     18 C          63.3639   80.7402   13.2353 C.2     1  UNL1        0.0729
     19 O          62.7801   79.5602   12.5164 O.co2   1  UNL1       -0.5446
     20 C          61.8848   90.1742   11.7721 C.2     1  UNL1        0.1987
     21 O          60.6394   91.0074   11.8391 O.2     1  UNL1       -0.2865
     22 C          63.2170   90.7903   12.0820 C.ar    1  UNL1        0.0601
     23 C          63.7949   90.6732   13.4612 C.ar    1  UNL1        0.0615
     24 CL         63.0406   89.9400   14.5306 Cl      1  UNL1       -0.0821
     25 C          65.1269   91.2893   13.7711 C.ar    1  UNL1        0.0115
     26 C          65.8810   92.0226   12.7017 C.ar    1  UNL1        0.0017
     27 C          65.3031   92.1396   11.3225 C.ar    1  UNL1        0.0115
     28 C          63.9711   91.5235   11.0126 C.ar    1  UNL1        0.0615
     29 CL         63.3932   91.6406    9.6333 Cl      1  UNL1       -0.0821
@<TRIPOS>UNITY_ATOM_ATTR
17 1
charge -1
@<TRIPOS>BOND
     1    17    18   ar
     2    18    19   ar
     3    18    11    1
     4    11    12   ar
     5    12    13   ar
     6    13    14   ar
     7    14     1    1
     8     1     2   ar
     9     2     3   ar
    10     3    20    1
    11    20    21    2
    12    20    22    1
    13    22    23   ar
    14    23    24    1
    15    23    25   ar
    16    25    26   ar
    17    26    27   ar
    18    27    28   ar
    19    28    29    1
    20     3     4   ar
    21     4     5   ar
    22     5     6    1
    23     5     7   ar
    24     7     8   ar
    25     8     9   ar
    26     9    10   ar
    27    14    15   ar
    28    15    16   ar
    29    16    11   ar
    30    10     1   ar
    31    28    22   ar
    32    10     4   ar
@<TRIPOS>MOLECULE
*****
 29 32 0 0 0
SMALL
GASTEIGER

@<TRIPOS>ATOM
      1 N          62.5361   86.5732   11.4858 N.ar    1  UNL1       -0.3048
      2 C          63.2365   87.7875   12.0195 C.ar    1  UNL1        0.0833
      3 C          62.6985   88.9874   11.2980 C.ar    1  UNL1        0.0601
      4 C          61.6656   88.5148   10.3184 C.ar    1  UNL1        0.0481
      5 C          60.8035   89.2503    9.3357 C.ar    1  UNL1        0.1416
      6 F          60.9038   90.7424    9.2196 F       1  UNL1       -0.2041
      7 C          59.8410   88.4937    8.4690 C.ar    1  UNL1        0.0297
      8 C          59.7406   87.0015    8.5851 C.ar    1  UNL1        0.0038
      9 C          60.6028   86.2660    9.5678 C.ar    1  UNL1        0.0177
     10 C          61.5652   87.0226   10.4344 C.ar    1  UNL1        0.0663
     11 C          63.2263   82.3271   12.8068 C.ar    1  UNL1        0.0141
     12 C          63.3707   82.6953   11.3599 C.ar    1  UNL1        0.0026
     13 C          63.1406   84.1107   10.9196 C.ar    1  UNL1        0.0176
     14 C          62.7662   85.1578   11.9261 C.ar    1  UNL1        0.0640
     15 C          62.6217   84.7896   13.3731 C.ar    1  UNL1        0.0176
     16 C          62.8518   83.3742   13.8134 C.ar    1  UNL1        0.0026
     17 O          64.3213   80.6285   14.4393 O.co2   1  UNL1       -0.5446
     18 C          63.4564   80.9117   13.2471 C.2     1  UNL1        0.0729
     19 O          62.8214   79.7797   12.4951 O.co2   1  UNL1       -0.5446
     20 C          63.1195   90.4103   11.5176 C.2     1  UNL1        0.1987
     21 O          62.8313   91.4474   10.4730 O.2     1  UNL1       -0.2865
     22 C          63.8287   90.7961   12.7819 C.ar    1  UNL1        0.0601
     23 C          63.2293   90.4516   14.1131 C.ar    1  UNL1        0.0615
     24 CL         61.9208   89.7214   14.1800 Cl      1  UNL1       -0.0821
     25 C          63.9385   90.8373   15.3773 C.ar    1  UNL1        0.0115
     26 C          65.2470   91.5675   15.3103 C.ar    1  UNL1        0.0017
     27 C          65.8464   91.9120   13.9791 C.ar    1  UNL1        0.0115
     28 C          65.1373   91.5263   12.7149 C.ar    1  UNL1        0.0615
     29 CL         65.7366   91.8708   11.3837 Cl      1  UNL1       -0.0821
@<TRIPOS>UNITY_ATOM_ATTR
17 1
charge -1
@<TRIPOS>BOND
     1    17    18   ar
     2    18    19   ar
     3    18    11    1
     4    11    12   ar
     5    12    13   ar
     6    13    14   ar
     7    14     1    1
     8     1     2   ar
     9     2     3   ar
    10     3    20    1
    11    20    21    2
    12    20    22    1
    13    22    23   ar
    14    23    24    1
    15    23    25   ar
    16    25    26   ar
    17    26    27   ar
    18    27    28   ar
    19    28    29    1
    20     3     4   ar
    21     4     5   ar
    22     5     6    1
    23     5     7   ar
    24     7     8   ar
    25     8     9   ar
    26     9    10   ar
    27    14    15   ar
    28    15    16   ar
    29    16    11   ar
    30    10     1   ar
    31    28    22   ar
    32    10     4   ar
@<TRIPOS>MOLECULE
*****
 29 32 0 0 0
SMALL
GASTEIGER

@<TRIPOS>ATOM
      1 N          60.5321   93.8511   -2.7686 N.ar    1  UNL1       -0.3048
      2 C          60.5649   93.9755   -1.2742 C.ar    1  UNL1        0.0833
      3 C          61.9393   94.4260   -0.8766 C.ar    1  UNL1        0.0601
      4 C          62.7559   94.5801   -2.1253 C.ar    1  UNL1        0.0481
      5 C          64.1791   94.9979   -2.3487 C.ar    1  UNL1        0.1416
      6 F          65.0488   95.3532   -1.1793 F       1  UNL1       -0.2041
      7 C          64.7326   95.0605   -3.7414 C.ar    1  UNL1        0.0297
      8 C          63.8629   94.7052   -4.9107 C.ar    1  UNL1        0.0038
      9 C          62.4398   94.2873   -4.6874 C.ar    1  UNL1        0.0177
     10 C          61.8863   94.2248   -3.2947 C.ar    1  UNL1        0.0663
     11 C          56.9928   92.5802   -5.2401 C.ar    1  UNL1        0.0141
     12 C          57.9194   93.6444   -5.7487 C.ar    1  UNL1        0.0026
     13 C          59.0992   94.0681   -4.9249 C.ar    1  UNL1        0.0176
     14 C          59.3524   93.4275   -3.5925 C.ar    1  UNL1        0.0640
     15 C          58.4257   92.3632   -3.0838 C.ar    1  UNL1        0.0176
     16 C          57.2459   91.9395   -3.9076 C.ar    1  UNL1        0.0026
     17 O          55.3290   93.0283   -7.1845 O.co2   1  UNL1       -0.5446
     18 C          55.8130   92.1565   -6.0639 C.2     1  UNL1        0.0729
     19 O          55.1174   90.8612   -5.7672 O.co2   1  UNL1       -0.5446
     20 C          62.4137   94.6782    0.5239 C.2     1  UNL1        0.1987
     21 O          62.8578   96.0524    0.9293 O.2     1  UNL1       -0.2865
     22 C          62.4441   93.5562    1.5190 C.ar    1  UNL1        0.0601
     23 C          63.6926   92.7437    1.6953 C.ar    1  UNL1        0.0615
     24 CL         64.9107   93.0532    0.8765 Cl      1  UNL1       -0.0821
     25 C          63.7230   91.6217    2.6903 C.ar    1  UNL1        0.0115
     26 C          62.5048   91.3122    3.5091 C.ar    1  UNL1        0.0017
     27 C          61.2564   92.1247    3.3328 C.ar    1  UNL1        0.0115
     28 C          61.2259   93.2467    2.3378 C.ar    1  UNL1        0.0615
     29 CL         59.9775   94.0592    2.1615 Cl      1  UNL1       -0.0821
@<TRIPOS>UNITY_ATOM_ATTR
17 1
charge -1
@<TRIPOS>BOND
     1    17    18   ar
     2    18    19   ar
     3    18    11    1
     4    11    12   ar
     5    12    13   ar
     6    13    14   ar
     7    14     1    1
     8     1     2   ar
     9     2     3   ar
    10     3    20    1
    11    20    21    2
    12    20    22    1
    13    22    23   ar
    14    23    24    1
    15    23    25   ar
    16    25    26   ar
    17    26    27   ar
    18    27    28   ar
    19    28    29    1
    20     3     4   ar
    21     4     5   ar
    22     5     6    1
    23     5     7   ar
    24     7     8   ar
    25     8     9   ar
    26     9    10   ar
    27    14    15   ar
    28    15    16   ar
    29    16    11   ar
    30    10     1   ar
    31    28    22   ar
    32    10     4   ar
@<TRIPOS>MOLECULE
*****
 29 32 0 0 0
SMALL
GASTEIGER

@<TRIPOS>ATOM
      1 N          60.5170   93.8372   -2.7667 N.ar    1  UNL1       -0.3048
      2 C          60.5503   93.9630   -1.2724 C.ar    1  UNL1        0.0833
      3 C          61.9238   94.4173   -0.8760 C.ar    1  UNL1        0.0601
      4 C          62.7394   94.5721   -2.1254 C.ar    1  UNL1        0.0481
      5 C          64.1614   94.9933   -2.3499 C.ar    1  UNL1        0.1416
      6 F          65.0308   95.3518   -1.1814 F       1  UNL1       -0.2041
      7 C          64.7139   95.0559   -3.7430 C.ar    1  UNL1        0.0297
      8 C          63.8444   94.6974   -4.9116 C.ar    1  UNL1        0.0038
      9 C          62.4224   94.2762   -4.6870 C.ar    1  UNL1        0.0177
     10 C          61.8699   94.2136   -3.2939 C.ar    1  UNL1        0.0663
     11 C          56.9794   92.5554   -5.2351 C.ar    1  UNL1        0.0141
     12 C          57.2335   91.9183   -3.9011 C.ar    1  UNL1        0.0026
     13 C          58.4127   92.3456   -3.0784 C.ar    1  UNL1        0.0176
     14 C          59.3378   93.4099   -3.5895 C.ar    1  UNL1        0.0640
     15 C          59.0837   94.0470   -4.9236 C.ar    1  UNL1        0.0176
     16 C          57.9045   93.6197   -5.7464 C.ar    1  UNL1        0.0026
     17 O          55.1051   90.8335   -5.7565 O.co2   1  UNL1       -0.5446
     18 C          55.8002   92.1281   -6.0579 C.2     1  UNL1        0.0729
     19 O          55.3162   92.9954   -7.1820 O.co2   1  UNL1       -0.5446
     20 C          62.3984   94.6719    0.5239 C.2     1  UNL1        0.1987
     21 O          62.8385   96.0477    0.9281 O.2     1  UNL1       -0.2865
     22 C          62.4330   93.5506    1.5198 C.ar    1  UNL1        0.0601
     23 C          61.2196   93.2445    2.3468 C.ar    1  UNL1        0.0615
     24 CL         59.9717   94.0596    2.1780 Cl      1  UNL1       -0.0821
     25 C          61.2541   92.1233    3.3427 C.ar    1  UNL1        0.0115
     26 C          62.5020   91.3083    3.5115 C.ar    1  UNL1        0.0017
     27 C          63.7153   91.6145    2.6844 C.ar    1  UNL1        0.0115
     28 C          63.6809   92.7356    1.6886 C.ar    1  UNL1        0.0615
     29 CL         64.8942   93.0418    0.8616 Cl      1  UNL1       -0.0821
@<TRIPOS>UNITY_ATOM_ATTR
17 1
charge -1
@<TRIPOS>BOND
     1    17    18   ar
     2    18    19   ar
     3    18    11    1
     4    11    12   ar
     5    12    13   ar
     6    13    14   ar
     7    14     1    1
     8     1     2   ar
     9     2     3   ar
    10     3    20    1
    11    20    21    2
    12    20    22    1
    13    22    23   ar
    14    23    24    1
    15    23    25   ar
    16    25    26   ar
    17    26    27   ar
    18    27    28   ar
    19    28    29    1
    20     3     4   ar
    21     4     5   ar
    22     5     6    1
    23     5     7   ar
    24     7     8   ar
    25     8     9   ar
    26     9    10   ar
    27    14    15   ar
    28    15    16   ar
    29    16    11   ar
    30    10     1   ar
    31    28    22   ar
    32    10     4   ar
@<TRIPOS>MOLECULE
*****
 29 32 0 0 0
SMALL
GASTEIGER

@<TRIPOS>ATOM
      1 N          63.1963   88.7572   12.2011 N.ar    1  UNL1       -0.3048
      2 C          63.3820   87.2721   12.3014 C.ar    1  UNL1        0.0833
      3 C          62.3898   86.6182   11.3860 C.ar    1  UNL1        0.0601
      4 C          61.5910   87.6991   10.7200 C.ar    1  UNL1        0.0481
      5 C          60.4741   87.6504    9.7199 C.ar    1  UNL1        0.1416
      6 F          59.9756   86.3284    9.2161 F       1  UNL1       -0.2041
      7 C          59.8557   88.9236    9.2237 C.ar    1  UNL1        0.0297
      8 C          60.3542   90.2456    9.7275 C.ar    1  UNL1        0.0038
      9 C          61.4710   90.2944   10.7276 C.ar    1  UNL1        0.0177
     10 C          62.0894   89.0211   11.2238 C.ar    1  UNL1        0.0663
     11 C          65.5472   91.8738   14.4395 C.ar    1  UNL1        0.0141
     12 C          65.2137   90.5687   15.0992 C.ar    1  UNL1        0.0026
     13 C          64.4301   89.5298   14.3531 C.ar    1  UNL1        0.0176
     14 C          63.9799   89.7961   12.9473 C.ar    1  UNL1        0.0640
     15 C          64.3135   91.1013   12.2875 C.ar    1  UNL1        0.0176
     16 C          65.0971   92.1402   13.0336 C.ar    1  UNL1        0.0026
     17 O          66.9151   94.0825   14.4507 O.co2   1  UNL1       -0.5446
     18 C          66.3309   92.9127   15.1856 C.2     1  UNL1        0.0729
     19 O          66.5302   92.7817   16.6665 O.co2   1  UNL1       -0.5446
     20 C          62.2253   85.1424   11.1737 C.2     1  UNL1        0.1987
     21 O          61.3168   84.6368   10.0927 O.2     1  UNL1       -0.2865
     22 C          62.9695   84.1722   12.0427 C.ar    1  UNL1        0.0601
     23 C          62.6911   84.1183   13.5157 C.ar    1  UNL1        0.0615
     24 CL         61.6686   85.0346   14.1196 Cl      1  UNL1       -0.0821
     25 C          63.4352   83.1482   14.3846 C.ar    1  UNL1        0.0115
     26 C          64.4577   82.2319   13.7805 C.ar    1  UNL1        0.0017
     27 C          64.7361   82.2857   12.3076 C.ar    1  UNL1        0.0115
     28 C          63.9920   83.2559   11.4386 C.ar    1  UNL1        0.0615
     29 CL         64.2704   83.3098    9.9657 Cl      1  UNL1       -0.0821
@<TRIPOS>UNITY_ATOM_ATTR
17 1
charge -1
@<TRIPOS>BOND
     1    17    18   ar
     2    18    19   ar
     3    18    11    1
     4    11    12   ar
     5    12    13   ar
     6    13    14   ar
     7    14     1    1
     8     1     2   ar
     9     2     3   ar
    10     3    20    1
    11    20    21    2
    12    20    22    1
    13    22    23   ar
    14    23    24    1
    15    23    25   ar
    16    25    26   ar
    17    26    27   ar
    18    27    28   ar
    19    28    29    1
    20     3     4   ar
    21     4     5   ar
    22     5     6    1
    23     5     7   ar
    24     7     8   ar
    25     8     9   ar
    26     9    10   ar
    27    14    15   ar
    28    15    16   ar
    29    16    11   ar
    30    10     1   ar
    31    28    22   ar
    32    10     4   ar
@<TRIPOS>MOLECULE
*****
 29 32 0 0 0
SMALL
GASTEIGER

@<TRIPOS>ATOM
      1 N          63.1812   88.7455   12.2008 N.ar    1  UNL1       -0.3048
      2 C          63.3917   87.2620   12.2711 C.ar    1  UNL1        0.0833
      3 C          62.3980   86.6091   11.3565 C.ar    1  UNL1        0.0601
      4 C          61.5734   87.6891   10.7211 C.ar    1  UNL1        0.0481
      5 C          60.4444   87.6408    9.7348 C.ar    1  UNL1        0.1416
      6 F          59.9603   86.3204    9.2130 F       1  UNL1       -0.2041
      7 C          59.7994   88.9128    9.2703 C.ar    1  UNL1        0.0297
      8 C          60.2835   90.2332    9.7921 C.ar    1  UNL1        0.0038
      9 C          61.4125   90.2815   10.7784 C.ar    1  UNL1        0.0177
     10 C          62.0575   89.0094   11.2429 C.ar    1  UNL1        0.0663
     11 C          65.5119   91.8577   14.4663 C.ar    1  UNL1        0.0141
     12 C          65.0600   92.1333   13.0628 C.ar    1  UNL1        0.0026
     13 C          64.2831   91.0958   12.3077 C.ar    1  UNL1        0.0176
     14 C          63.9581   89.7829   12.9560 C.ar    1  UNL1        0.0640
     15 C          64.4100   89.5073   14.3596 C.ar    1  UNL1        0.0176
     16 C          65.1869   90.5447   15.1147 C.ar    1  UNL1        0.0026
     17 O          66.4105   92.8022   16.7135 O.co2   1  UNL1       -0.5446
     18 C          66.2888   92.8952   15.2214 C.2     1  UNL1        0.0729
     19 O          66.9439   94.0255   14.4844 O.co2   1  UNL1       -0.5446
     20 C          62.2541   85.1350   11.1191 C.2     1  UNL1        0.1987
     21 O          61.3987   84.6368    9.9922 O.2     1  UNL1       -0.2865
     22 C          62.9657   84.1590   12.0087 C.ar    1  UNL1        0.0601
     23 C          63.9862   83.2237   11.4309 C.ar    1  UNL1        0.0615
     24 CL         64.2950   83.2644    9.9635 Cl      1  UNL1       -0.0821
     25 C          64.6978   82.2478   12.3203 C.ar    1  UNL1        0.0115
     26 C          64.3889   82.2072   13.7876 C.ar    1  UNL1        0.0017
     27 C          63.3684   83.1425   14.3654 C.ar    1  UNL1        0.0115
     28 C          62.6568   84.1184   13.4760 C.ar    1  UNL1        0.0615
     29 CL         61.6364   85.0537   14.0537 Cl      1  UNL1       -0.0821
@<TRIPOS>UNITY_ATOM_ATTR
17 1
charge -1
@<TRIPOS>BOND
     1    17    18   ar
     2    18    19   ar
     3    18    11    1
     4    11    12   ar
     5    12    13   ar
     6    13    14   ar
     7    14     1    1
     8     1     2   ar
     9     2     3   ar
    10     3    20    1
    11    20    21    2
    12    20    22    1
    13    22    23   ar
    14    23    24    1
    15    23    25   ar
    16    25    26   ar
    17    26    27   ar
    18    27    28   ar
    19    28    29    1
    20     3     4   ar
    21     4     5   ar
    22     5     6    1
    23     5     7   ar
    24     7     8   ar
    25     8     9   ar
    26     9    10   ar
    27    14    15   ar
    28    15    16   ar
    29    16    11   ar
    30    10     1   ar
    31    28    22   ar
    32    10     4   ar
