@<TRIPOS>MOLECULE
*****
 34 37 0 0 0
SMALL
GASTEIGER

@<TRIPOS>ATOM
      1 C          63.9213   88.5246   14.3484 C.ar    1  UNL1        0.0187
      2 C          63.7290   88.5041   15.8358 C.ar    1  UNL1        0.0031
      3 C          63.4236   87.2125   16.5348 C.ar    1  UNL1        0.0208
      4 C          63.3105   85.9415   15.7464 C.ar    1  UNL1        0.1017
      5 N          63.0212   84.5280   16.1570 N.ar    1  UNL1       -0.2126
      6 C          63.0348   83.6750   14.9232 C.ar    1  UNL1        0.2143
      7 N          62.7932   82.1954   14.8716 N.pl3   1  UNL1       -0.3275
      8 N          63.3325   84.5612   13.7502 N.ar    1  UNL1       -0.1822
      9 C          63.5028   85.9620   14.2589 C.ar    1  UNL1        0.1026
     10 C          63.8082   87.2535   13.5599 C.ar    1  UNL1        0.0220
     11 H          62.6046   81.6982   15.7001 H       1  UNL1        0.1451
     12 H          62.8232   81.7216   14.0091 H       1  UNL1        0.1451
     13 C          65.2248   91.9551   13.0842 C.ar    1  UNL1        0.1166
     14 N          64.1686   91.6521   12.0630 N.ar    1  UNL1       -0.2312
     15 C          63.5518   90.3302   12.4123 C.ar    1  UNL1        0.0980
     16 C          64.2267   89.8161   13.6493 C.ar    1  UNL1        0.0753
     17 N          65.2607   90.8204   14.0645 N.ar    1  UNL1       -0.3408
     18 H          65.8581   90.7475   14.8437 H       1  UNL1        0.1671
     19 C          62.4529   89.6430   11.6572 C.ar    1  UNL1        0.0193
     20 C          61.0340   89.7541   12.1309 C.ar    1  UNL1        0.0038
     21 C          59.9352   89.0669   11.3758 C.ar    1  UNL1        0.0297
     22 C          60.2552   88.2685   10.1469 C.ar    1  UNL1        0.1401
     23 F          59.1563   87.5813    9.3917 F       1  UNL1       -0.2042
     24 C          61.6741   88.1573    9.6731 C.ar    1  UNL1        0.0297
     25 C          62.7729   88.8446   10.4283 C.ar    1  UNL1        0.0038
     26 C          66.1945   94.0599   11.9098 C.3     1  UNL1        0.0079
     27 C          66.0927   93.1780   13.1188 C.3     1  UNL1        0.0567
     28 C          66.8588   93.5190   14.3625 C.3     1  UNL1        0.0079
     29 S          63.4407   84.1236   12.3196 S.O2    1  UNL1        0.0667
     30 O          62.2228   84.9307   11.9804 O.2     1  UNL1       -0.1521
     31 O          64.6587   83.3164   12.6587 O.2     1  UNL1       -0.1521
     32 C          63.5491   83.6858   10.8889 C.3     1  UNL1        0.1516
     33 C          63.1619   84.6256    9.7857 C.3     1  UNL1        0.0275
     34 C          64.0445   82.3085   10.5614 C.3     1  UNL1        0.0275
@<TRIPOS>BOND
     1    26    27    1
     2    27    28    1
     3    27    13    1
     4    13    14   ar
     5    14    15   ar
     6    15    19    1
     7    19    20   ar
     8    20    21   ar
     9    21    22   ar
    10    22    23    1
    11    22    24   ar
    12    24    25   ar
    13    15    16   ar
    14    16     1    1
    15     1     2   ar
    16     2     3   ar
    17     3     4   ar
    18     4     5   ar
    19     5     6   ar
    20     6     7    1
    21     6     8   ar
    22     8    29    1
    23    29    30    2
    24    29    31    2
    25    29    32    1
    26    32    33    1
    27    32    34    1
    28     8     9   ar
    29     9    10   ar
    30    16    17   ar
    31    17    13   ar
    32    25    19   ar
    33    10     1   ar
    34     9     4   ar
    35     7    11    1
    36     7    12    1
    37    17    18    1
@<TRIPOS>MOLECULE
*****
 34 37 0 0 0
SMALL
GASTEIGER

@<TRIPOS>ATOM
      1 C          64.1375   88.0694   14.0104 C.ar    1  UNL1        0.0187
      2 C          64.3842   87.3423   15.2990 C.ar    1  UNL1        0.0031
      3 C          64.0912   85.8747   15.3999 C.ar    1  UNL1        0.0208
      4 C          63.5515   85.1342   14.2123 C.ar    1  UNL1        0.1017
      5 N          63.1705   83.6970   14.0138 N.ar    1  UNL1       -0.2126
      6 C          62.6884   83.5359   12.6026 C.ar    1  UNL1        0.2143
      7 N          62.2076   82.2610   11.9751 N.pl3   1  UNL1       -0.3275
      8 N          62.7714   84.8736   11.9289 N.ar    1  UNL1       -0.1822
      9 C          63.3048   85.8613   12.9237 C.ar    1  UNL1        0.1026
     10 C          63.5978   87.3289   12.8228 C.ar    1  UNL1        0.0220
     11 H          62.1900   81.4294   12.5017 H       1  UNL1        0.1451
     12 H          61.9096   82.2560   11.0368 H       1  UNL1        0.1451
     13 C          65.4023   91.7284   14.2895 C.ar    1  UNL1        0.1166
     14 N          64.3605   91.8627   13.2186 N.ar    1  UNL1       -0.2312
     15 C          63.7599   90.5084   12.9838 C.ar    1  UNL1        0.0980
     16 C          64.4305   89.5371   13.9095 C.ar    1  UNL1        0.0753
     17 N          65.4455   90.2911   14.7164 N.ar    1  UNL1       -0.3408
     18 H          66.0364   89.9096   15.4053 H       1  UNL1        0.1671
     19 C          62.6786   90.1826   11.9965 C.ar    1  UNL1        0.0193
     20 C          63.0094   90.0450   10.5400 C.ar    1  UNL1        0.0038
     21 C          61.9281   89.7192    9.5528 C.ar    1  UNL1        0.0297
     22 C          60.5159   89.5310   10.0221 C.ar    1  UNL1        0.1401
     23 F          59.4346   89.2052    9.0349 F       1  UNL1       -0.2042
     24 C          60.1850   89.6685   11.4788 C.ar    1  UNL1        0.0297
     25 C          61.2664   89.9943   12.4659 C.ar    1  UNL1        0.0038
     26 C          66.7582   92.7669   16.2473 C.3     1  UNL1        0.0079
     27 C          66.2516   92.8368   14.8372 C.3     1  UNL1        0.0567
     28 C          66.5945   94.0153   13.9748 C.3     1  UNL1        0.0079
     29 S          62.3882   85.1712   10.5095 S.O2    1  UNL1        0.0667
     30 O          63.5196   84.3141   10.0244 O.2     1  UNL1       -0.1521
     31 O          61.2568   86.0283   10.9947 O.2     1  UNL1       -0.1521
     32 C          62.0050   85.4689    9.0901 C.3     1  UNL1        0.1516
     33 C          62.9389   85.1144    7.9711 C.3     1  UNL1        0.0275
     34 C          60.6880   86.1210    8.7898 C.3     1  UNL1        0.0275
@<TRIPOS>BOND
     1    26    27    1
     2    27    28    1
     3    27    13    1
     4    13    14   ar
     5    14    15   ar
     6    15    19    1
     7    19    20   ar
     8    20    21   ar
     9    21    22   ar
    10    22    23    1
    11    22    24   ar
    12    24    25   ar
    13    15    16   ar
    14    16     1    1
    15     1     2   ar
    16     2     3   ar
    17     3     4   ar
    18     4     5   ar
    19     5     6   ar
    20     6     7    1
    21     6     8   ar
    22     8    29    1
    23    29    30    2
    24    29    31    2
    25    29    32    1
    26    32    33    1
    27    32    34    1
    28     8     9   ar
    29     9    10   ar
    30    16    17   ar
    31    17    13   ar
    32    25    19   ar
    33    10     1   ar
    34     9     4   ar
    35     7    11    1
    36     7    12    1
    37    17    18    1
@<TRIPOS>MOLECULE
*****
 34 37 0 0 0
SMALL
GASTEIGER

@<TRIPOS>ATOM
      1 C          62.8973   89.6830   12.1870 C.ar    1  UNL1        0.0187
      2 C          62.5351   89.6218   13.6412 C.ar    1  UNL1        0.0031
      3 C          63.2826   90.4593   14.6361 C.ar    1  UNL1        0.0208
      4 C          64.3923   91.3580   14.1767 C.ar    1  UNL1        0.1017
      5 N          65.3001   92.2924   14.9203 N.ar    1  UNL1       -0.2126
      6 C          66.2233   92.9310   13.9255 C.ar    1  UNL1        0.2143
      7 N          67.2956   93.9335   14.2347 N.pl3   1  UNL1       -0.3275
      8 N          65.8861   92.3913   12.5672 N.ar    1  UNL1       -0.1822
      9 C          64.7545   91.4191   12.7225 C.ar    1  UNL1        0.1026
     10 C          64.0070   90.5816   11.7276 C.ar    1  UNL1        0.0220
     11 H          67.4416   94.2277   15.1628 H       1  UNL1        0.1451
     12 H          67.8533   94.2971   13.5095 H       1  UNL1        0.1451
     13 C          60.7498   88.1789    9.3249 C.ar    1  UNL1        0.1166
     14 N          61.2496   86.9344    9.9969 N.ar    1  UNL1       -0.2312
     15 C          62.1149   87.3464   11.1508 C.ar    1  UNL1        0.0980
     16 C          62.1499   88.8455   11.1920 C.ar    1  UNL1        0.0753
     17 N          61.3062   89.3599   10.0635 N.ar    1  UNL1       -0.3408
     18 H          61.1458   90.3066    9.8458 H       1  UNL1        0.1671
     19 C          62.8212   86.4217   12.0974 C.ar    1  UNL1        0.0193
     20 C          62.7249   84.9370   11.9074 C.ar    1  UNL1        0.0038
     21 C          63.4312   84.0123   12.8540 C.ar    1  UNL1        0.0297
     22 C          64.2339   84.5723   13.9907 C.ar    1  UNL1        0.1401
     23 F          64.9402   83.6476   14.9373 F       1  UNL1       -0.2042
     24 C          64.3303   86.0572   14.1807 C.ar    1  UNL1        0.0297
     25 C          63.6239   86.9818   13.2341 C.ar    1  UNL1        0.0038
     26 C          59.0488   87.0273    7.7341 C.3     1  UNL1        0.0079
     27 C          59.8513   88.2328    8.1249 C.3     1  UNL1        0.0567
     28 C          59.7553   89.4921    7.3158 C.3     1  UNL1        0.0079
     29 S          66.5620   92.7592   11.2796 S.O2    1  UNL1        0.0667
     30 O          65.3016   93.4213   10.8072 O.2     1  UNL1       -0.1521
     31 O          67.8223   92.0972   11.7519 O.2     1  UNL1       -0.1521
     32 C          67.2379   93.1271    9.9919 C.3     1  UNL1        0.1516
     33 C          66.8748   94.4033    9.2923 C.3     1  UNL1        0.0275
     34 C          68.2767   92.2188    9.4040 C.3     1  UNL1        0.0275
@<TRIPOS>BOND
     1    26    27    1
     2    27    28    1
     3    27    13    1
     4    13    14   ar
     5    14    15   ar
     6    15    19    1
     7    19    20   ar
     8    20    21   ar
     9    21    22   ar
    10    22    23    1
    11    22    24   ar
    12    24    25   ar
    13    15    16   ar
    14    16     1    1
    15     1     2   ar
    16     2     3   ar
    17     3     4   ar
    18     4     5   ar
    19     5     6   ar
    20     6     7    1
    21     6     8   ar
    22     8    29    1
    23    29    30    2
    24    29    31    2
    25    29    32    1
    26    32    33    1
    27    32    34    1
    28     8     9   ar
    29     9    10   ar
    30    16    17   ar
    31    17    13   ar
    32    25    19   ar
    33    10     1   ar
    34     9     4   ar
    35     7    11    1
    36     7    12    1
    37    17    18    1
@<TRIPOS>MOLECULE
*****
 34 37 0 0 0
SMALL
GASTEIGER

@<TRIPOS>ATOM
      1 C          63.2192   90.0582   12.3267 C.ar    1  UNL1        0.0187
      2 C          62.2340   91.0354   11.7572 C.ar    1  UNL1        0.0031
      3 C          61.1607   90.5602   10.8234 C.ar    1  UNL1        0.0208
      4 C          61.0725   89.1078   10.4590 C.ar    1  UNL1        0.1017
      5 N          60.1302   88.3514    9.5701 N.ar    1  UNL1       -0.2126
      6 C          60.5331   86.9067    9.5904 C.ar    1  UNL1        0.2143
      7 N          59.8625   85.7937    8.8408 N.pl3   1  UNL1       -0.3275
      8 N          61.7243   86.7702   10.4917 N.ar    1  UNL1       -0.1822
      9 C          62.0577   88.1306   11.0285 C.ar    1  UNL1        0.1026
     10 C          63.1310   88.6058   11.9624 C.ar    1  UNL1        0.0220
     11 H          59.0825   85.9840    8.2711 H       1  UNL1        0.1451
     12 H          60.2025   84.8731    8.9186 H       1  UNL1        0.1451
     13 C          66.0751   91.8510   14.2490 C.ar    1  UNL1        0.1166
     14 N          65.8134   90.6780   15.1466 N.ar    1  UNL1       -0.2312
     15 C          64.7117   89.8637   14.5357 C.ar    1  UNL1        0.0980
     16 C          64.2925   90.5334   13.2607 C.ar    1  UNL1        0.0753
     17 N          65.1352   91.7616   13.0835 N.ar    1  UNL1       -0.3408
     18 H          65.0808   92.3974   12.3338 H       1  UNL1        0.1671
     19 C          64.1312   88.6012   15.1008 C.ar    1  UNL1        0.0193
     20 C          63.2237   88.6612   16.2935 C.ar    1  UNL1        0.0038
     21 C          62.6431   87.3988   16.8585 C.ar    1  UNL1        0.0297
     22 C          62.9701   86.0763   16.2308 C.ar    1  UNL1        0.1401
     23 F          62.3895   84.8139   16.7958 F       1  UNL1       -0.2042
     24 C          63.8777   86.0162   15.0379 C.ar    1  UNL1        0.0297
     25 C          64.4582   87.2787   14.4730 C.ar    1  UNL1        0.0038
     26 C          66.8442   94.3183   13.9827 C.3     1  UNL1        0.0079
     27 C          67.0973   92.9249   14.4770 C.3     1  UNL1        0.0567
     28 C          68.3725   92.6053   15.1992 C.3     1  UNL1        0.0079
     29 S          62.4541   85.4969   10.8018 S.O2    1  UNL1        0.0667
     30 O          61.9930   85.5796   12.2267 O.2     1  UNL1       -0.1521
     31 O          62.9153   85.4142    9.3768 O.2     1  UNL1       -0.1521
     32 C          63.1839   84.2236   11.1118 C.3     1  UNL1        0.1516
     33 C          63.1512   83.6597   12.5014 C.3     1  UNL1        0.0275
     34 C          63.9463   83.5142   10.0323 C.3     1  UNL1        0.0275
@<TRIPOS>BOND
     1    26    27    1
     2    27    28    1
     3    27    13    1
     4    13    14   ar
     5    14    15   ar
     6    15    19    1
     7    19    20   ar
     8    20    21   ar
     9    21    22   ar
    10    22    23    1
    11    22    24   ar
    12    24    25   ar
    13    15    16   ar
    14    16     1    1
    15     1     2   ar
    16     2     3   ar
    17     3     4   ar
    18     4     5   ar
    19     5     6   ar
    20     6     7    1
    21     6     8   ar
    22     8    29    1
    23    29    30    2
    24    29    31    2
    25    29    32    1
    26    32    33    1
    27    32    34    1
    28     8     9   ar
    29     9    10   ar
    30    16    17   ar
    31    17    13   ar
    32    25    19   ar
    33    10     1   ar
    34     9     4   ar
    35     7    11    1
    36     7    12    1
    37    17    18    1
@<TRIPOS>MOLECULE
*****
 34 37 0 0 0
SMALL
GASTEIGER

@<TRIPOS>ATOM
      1 C          63.5454   89.0844   12.0916 C.ar    1  UNL1        0.0187
      2 C          62.8523   89.4861   10.8234 C.ar    1  UNL1        0.0031
      3 C          63.0987   90.8420   10.2312 C.ar    1  UNL1        0.0208
      4 C          64.0381   91.7962   10.9071 C.ar    1  UNL1        0.1017
      5 N          64.4750   93.1889   10.5611 N.ar    1  UNL1       -0.2126
      6 C          65.4381   93.6479   11.6155 C.ar    1  UNL1        0.2143
      7 N          66.1227   94.9818   11.6639 N.pl3   1  UNL1       -0.3275
      8 N          65.5964   92.5390   12.6131 N.ar    1  UNL1       -0.1822
      9 C          64.7312   91.3946   12.1753 C.ar    1  UNL1        0.1026
     10 C          64.4848   90.0387   12.7675 C.ar    1  UNL1        0.0220
     11 H          65.9535   95.6478   10.9589 H       1  UNL1        0.1451
     12 H          66.7413   95.1911   12.4006 H       1  UNL1        0.1451
     13 C          63.3583   85.8169   14.1782 C.ar    1  UNL1        0.1166
     14 N          62.4816   85.4669   13.0124 N.ar    1  UNL1       -0.2312
     15 C          62.4449   86.6484   12.0889 C.ar    1  UNL1        0.0980
     16 C          63.2990   87.7285   12.6839 C.ar    1  UNL1        0.0753
     17 N          63.8635   87.2145   13.9751 N.ar    1  UNL1       -0.3408
     18 H          64.4608   87.7080   14.5826 H       1  UNL1        0.1671
     19 C          61.6872   86.7346   10.7973 C.ar    1  UNL1        0.0193
     20 C          62.1973   86.0227    9.5795 C.ar    1  UNL1        0.0038
     21 C          61.4396   86.1089    8.2878 C.ar    1  UNL1        0.0297
     22 C          60.1717   86.9071    8.2139 C.ar    1  UNL1        0.1401
     23 F          59.4140   86.9933    6.9222 F       1  UNL1       -0.2042
     24 C          59.6616   87.6191    9.4317 C.ar    1  UNL1        0.0297
     25 C          60.4194   87.5328   10.7233 C.ar    1  UNL1        0.0038
     26 C          63.5159   85.4374   16.7435 C.3     1  UNL1        0.0079
     27 C          63.6744   84.9255   15.3425 C.3     1  UNL1        0.0567
     28 C          64.1489   83.5224   15.1058 C.3     1  UNL1        0.0079
     29 S          66.4671   92.5691   13.8342 S.O2    1  UNL1        0.0667
     30 O          67.6885   92.5396   12.9640 O.2     1  UNL1       -0.1521
     31 O          65.2457   92.5986   14.7044 O.2     1  UNL1       -0.1521
     32 C          67.3378   92.5993   15.0553 C.3     1  UNL1        0.1516
     33 C          68.8308   92.6109   14.9117 C.3     1  UNL1        0.0275
     34 C          66.7154   92.6177   16.4199 C.3     1  UNL1        0.0275
@<TRIPOS>BOND
     1    26    27    1
     2    27    28    1
     3    27    13    1
     4    13    14   ar
     5    14    15   ar
     6    15    19    1
     7    19    20   ar
     8    20    21   ar
     9    21    22   ar
    10    22    23    1
    11    22    24   ar
    12    24    25   ar
    13    15    16   ar
    14    16     1    1
    15     1     2   ar
    16     2     3   ar
    17     3     4   ar
    18     4     5   ar
    19     5     6   ar
    20     6     7    1
    21     6     8   ar
    22     8    29    1
    23    29    30    2
    24    29    31    2
    25    29    32    1
    26    32    33    1
    27    32    34    1
    28     8     9   ar
    29     9    10   ar
    30    16    17   ar
    31    17    13   ar
    32    25    19   ar
    33    10     1   ar
    34     9     4   ar
    35     7    11    1
    36     7    12    1
    37    17    18    1
@<TRIPOS>MOLECULE
*****
 34 37 0 0 0
SMALL
GASTEIGER

@<TRIPOS>ATOM
      1 C          62.7974   87.4596   12.0764 C.ar    1  UNL1        0.0187
      2 C          63.4218   88.3201   13.1345 C.ar    1  UNL1        0.0031
      3 C          64.1226   87.6863   14.2994 C.ar    1  UNL1        0.0208
      4 C          64.1990   86.1920   14.4062 C.ar    1  UNL1        0.1017
      5 N          64.8187   85.2895   15.4316 N.ar    1  UNL1       -0.2126
      6 C          64.5773   83.8712   15.0071 C.ar    1  UNL1        0.2143
      7 N          65.0261   82.6425   15.7414 N.pl3   1  UNL1       -0.3275
      8 N          63.8084   83.8972   13.7195 N.ar    1  UNL1       -0.1822
      9 C          63.5746   85.3316   13.3481 C.ar    1  UNL1        0.1026
     10 C          62.8738   85.9654   12.1832 C.ar    1  UNL1        0.0220
     11 H          65.5282   82.7284   16.5838 H       1  UNL1        0.1451
     12 H          64.8184   81.7502   15.3809 H       1  UNL1        0.1451
     13 C          60.6449   88.4299    8.9956 C.ar    1  UNL1        0.1166
     14 N          61.3913   89.7076    9.2417 N.ar    1  UNL1       -0.2312
     15 C          62.2885   89.4996   10.4257 C.ar    1  UNL1        0.0980
     16 C          62.0965   88.0934   10.9113 C.ar    1  UNL1        0.0753
     17 N          61.0808   87.4323   10.0275 N.ar    1  UNL1       -0.3408
     18 H          60.7570   86.5063   10.1102 H       1  UNL1        0.1671
     19 C          63.2149   90.5189   11.0197 C.ar    1  UNL1        0.0193
     20 C          63.3114   90.6668   12.5092 C.ar    1  UNL1        0.0038
     21 C          64.2378   91.6861   13.1032 C.ar    1  UNL1        0.0297
     22 C          65.0677   92.5574   12.2077 C.ar    1  UNL1        0.1401
     23 F          65.9941   93.5767   12.8017 F       1  UNL1       -0.2042
     24 C          64.9712   92.4095   10.7181 C.ar    1  UNL1        0.0297
     25 C          64.0448   91.3902   10.1242 C.ar    1  UNL1        0.0038
     26 C          58.9496   86.8638    7.8025 C.3     1  UNL1        0.0079
     27 C          59.6392   88.1917    7.9085 C.3     1  UNL1        0.0567
     28 C          59.3231   89.2813    6.9272 C.3     1  UNL1        0.0079
     29 S          63.3532   82.6993   12.9400 S.O2    1  UNL1        0.0667
     30 O          64.4113   82.9668   11.9109 O.2     1  UNL1       -0.1521
     31 O          62.2951   82.4317   13.9690 O.2     1  UNL1       -0.1521
     32 C          62.8979   81.5012   12.1605 C.3     1  UNL1        0.1516
     33 C          62.2936   80.3280   12.8735 C.3     1  UNL1        0.0275
     34 C          63.0470   81.4764   10.6682 C.3     1  UNL1        0.0275
@<TRIPOS>BOND
     1    26    27    1
     2    27    28    1
     3    27    13    1
     4    13    14   ar
     5    14    15   ar
     6    15    19    1
     7    19    20   ar
     8    20    21   ar
     9    21    22   ar
    10    22    23    1
    11    22    24   ar
    12    24    25   ar
    13    15    16   ar
    14    16     1    1
    15     1     2   ar
    16     2     3   ar
    17     3     4   ar
    18     4     5   ar
    19     5     6   ar
    20     6     7    1
    21     6     8   ar
    22     8    29    1
    23    29    30    2
    24    29    31    2
    25    29    32    1
    26    32    33    1
    27    32    34    1
    28     8     9   ar
    29     9    10   ar
    30    16    17   ar
    31    17    13   ar
    32    25    19   ar
    33    10     1   ar
    34     9     4   ar
    35     7    11    1
    36     7    12    1
    37    17    18    1
@<TRIPOS>MOLECULE
*****
 34 37 0 0 0
SMALL
GASTEIGER

@<TRIPOS>ATOM
      1 C          63.4725   86.9897   14.2797 C.ar    1  UNL1        0.0187
      2 C          63.0275   86.7096   15.6844 C.ar    1  UNL1        0.0031
      3 C          63.0892   87.7923   16.7207 C.ar    1  UNL1        0.0208
      4 C          63.5958   89.1552   16.3522 C.ar    1  UNL1        0.1017
      5 N          63.7703   90.4115   17.1530 N.ar    1  UNL1       -0.2126
      6 C          64.3232   91.4681   16.2431 C.ar    1  UNL1        0.2143
      7 N          64.6513   92.8802   16.6286 N.pl3   1  UNL1       -0.3275
      8 N          64.4903   90.8648   14.8800 N.ar    1  UNL1       -0.1822
      9 C          64.0408   89.4354   14.9474 C.ar    1  UNL1        0.1026
     10 C          63.9791   88.3526   13.9111 C.ar    1  UNL1        0.0220
     11 H          64.5061   93.1843   17.5536 H       1  UNL1        0.1451
     12 H          65.0119   93.5028   15.9566 H       1  UNL1        0.1451
     13 C          63.7019   83.7849   12.1020 C.ar    1  UNL1        0.1166
     14 N          62.9299   84.6969   11.1951 N.ar    1  UNL1       -0.2312
     15 C          62.7501   86.0084   11.9005 C.ar    1  UNL1        0.0980
     16 C          63.4108   85.9070   13.2433 C.ar    1  UNL1        0.0753
     17 N          63.9991   84.5328   13.3679 N.ar    1  UNL1       -0.3408
     18 H          64.4934   84.1831   14.1441 H       1  UNL1        0.1671
     19 C          62.0350   87.2103   11.3583 C.ar    1  UNL1        0.0193
     20 C          60.5566   87.1552   11.1109 C.ar    1  UNL1        0.0038
     21 C          59.8415   88.3571   10.5686 C.ar    1  UNL1        0.0297
     22 C          60.6048   89.6142   10.2737 C.ar    1  UNL1        0.1401
     23 F          59.8897   90.8161    9.7315 F       1  UNL1       -0.2042
     24 C          62.0833   89.6694   10.5211 C.ar    1  UNL1        0.0297
     25 C          62.7983   88.4674   11.0634 C.ar    1  UNL1        0.0038
     26 C          64.3472   81.4033   12.9154 C.3     1  UNL1        0.0079
     27 C          64.1058   82.3729   11.7967 C.3     1  UNL1        0.0567
     28 C          64.2682   81.9306   10.3726 C.3     1  UNL1        0.0079
     29 S          65.0149   91.5676   13.6630 S.O2    1  UNL1        0.0667
     30 O          63.6245   91.6390   13.1049 O.2     1  UNL1       -0.1521
     31 O          66.4054   91.4962   14.2212 O.2     1  UNL1       -0.1521
     32 C          65.5396   92.2704   12.4461 C.3     1  UNL1        0.1516
     33 C          64.8651   92.0785   11.1201 C.3     1  UNL1        0.0275
     34 C          66.7386   93.1649   12.5551 C.3     1  UNL1        0.0275
@<TRIPOS>BOND
     1    26    27    1
     2    27    28    1
     3    27    13    1
     4    13    14   ar
     5    14    15   ar
     6    15    19    1
     7    19    20   ar
     8    20    21   ar
     9    21    22   ar
    10    22    23    1
    11    22    24   ar
    12    24    25   ar
    13    15    16   ar
    14    16     1    1
    15     1     2   ar
    16     2     3   ar
    17     3     4   ar
    18     4     5   ar
    19     5     6   ar
    20     6     7    1
    21     6     8   ar
    22     8    29    1
    23    29    30    2
    24    29    31    2
    25    29    32    1
    26    32    33    1
    27    32    34    1
    28     8     9   ar
    29     9    10   ar
    30    16    17   ar
    31    17    13   ar
    32    25    19   ar
    33    10     1   ar
    34     9     4   ar
    35     7    11    1
    36     7    12    1
    37    17    18    1
