@<TRIPOS>MOLECULE
*****
 39 43 0 0 0
SMALL
GASTEIGER

@<TRIPOS>ATOM
      1 CA         60.6430   88.3939   11.0068 C.3     2  LEU2        0.1523
      2 C          60.3628   89.7950   11.4632 C.2     2  LEU2        0.2409
      3 O          59.0404   90.4334   11.1564 O.2     2  LEU2       -0.2733
      4 N          61.4048   90.5579   12.2262 N.am    1  UNK1       -0.2970
      5 C          62.7270   89.9196   12.5330 C.3     1  UNK1        0.1494
      6 C          63.0073   88.5185   12.0767 C.2     1  UNK1        0.2444
      7 O          64.3296   87.8801   12.3835 O.2     1  UNK1       -0.2731
      8 N          61.9653   87.7556   11.3136 N.am    2  LEU2       -0.2615
      9 H          61.2208   91.4775   12.5257 H       1  UNK1        0.1499
     10 C          63.7690   90.6824   13.2961 C.3     1  UNK1        0.0356
     11 C          64.8777   91.4982   12.6999 C.3     1  UNK1        0.0285
     12 C          65.6792   92.0834   13.8247 C.ar    1  UNK1       -0.0261
     13 C          66.8882   92.9710   13.8399 C.ar    1  UNK1       -0.0046
     14 C          67.4839   93.4046   15.1464 C.ar    1  UNK1       -0.0003
     15 C          66.8707   92.9505   16.4378 C.ar    1  UNK1       -0.0003
     16 C          65.6616   92.0628   16.4226 C.ar    1  UNK1       -0.0046
     17 C          65.0659   91.6292   15.1161 C.ar    1  UNK1       -0.0261
     18 C          63.8854   90.7634   14.7894 C.3     1  UNK1        0.0285
     19 CB         59.6010   87.6311   10.2437 C.3     2  LEU2        0.0292
     20 CD1        60.0597   89.0541    8.1190 C.3     2  LEU2        0.0001
     21 CG         59.4379   87.8539    8.7694 C.3     2  LEU2        0.0021
     22 CD2        58.6530   86.8766    7.9454 C.3     2  LEU2        0.0001
     23 C          62.2456   86.3544   10.8573 C.3     0  UNK0        0.1751
     24 C          62.3461   85.2447   11.8614 C.ar    0  UNK0        0.0047
     25 C          62.2364   85.5467   13.3266 C.ar    0  UNK0        0.0009
     26 C          62.3369   84.4369   14.3308 C.ar    0  UNK0        0.0372
     27 C          62.5472   83.0251   13.8697 C.ar    0  UNK0        0.1454
     28 O          62.6840   81.7339   14.6207 O.2     0  UNK0       -0.4504
     29 C          62.8783   80.6338   13.6196 C.ar    0  UNK0        0.1796
     30 C          62.8616   81.2452   12.2500 C.ar    0  UNK0        0.0437
     31 C          62.6570   82.7231   12.4045 C.ar    0  UNK0        0.0375
     32 C          62.5564   83.8329   11.4004 C.ar    0  UNK0        0.0009
     33 C          62.4253   86.0631    9.3969 C.2     0  UNK0        0.2449
     34 O          63.5056   86.7567    8.6211 O.2     0  UNK0       -0.2729
     35 N          61.5248   85.0780    8.7122 N.am    0  UNK0       -0.3043
     36 H          60.8157   84.6227    9.2214 H       0  UNK0        0.1494
     37 C          61.7045   84.7867    7.2518 C.3     0  UNK0        0.0717
     38 C          63.0794   84.5628    6.6955 C.3     0  UNK0        0.0213
     39 C          60.5094   84.7192    6.3479 C.3     0  UNK0        0.0213
@<TRIPOS>BOND
     1    20    21    1
     2    21    22    1
     3    21    19    1
     4     1    19    1
     5     1     2    1
     6     2     3    2
     7     2     4   am
     8     4     5    1
     9     5    10    1
    10    10    11    1
    11    11    12    1
    12    12    13   ar
    13    13    14   ar
    14    14    15   ar
    15    15    16   ar
    16    16    17   ar
    17    17    18    1
    18     5     6    1
    19     6     7    2
    20     6     8   am
    21    23     8    1
    22    23    33    1
    23    33    34    2
    24    33    35   am
    25    35    37    1
    26    37    38    1
    27    37    39    1
    28    23    24    1
    29    24    25   ar
    30    25    26   ar
    31    26    27   ar
    32    27    28   ar
    33    28    29   ar
    34    29    30   ar
    35    30    31   ar
    36    31    32   ar
    37     8     1    1
    38    32    24   ar
    39    18    10    1
    40    31    27   ar
    41    17    12   ar
    42     4     9    1
    43    35    36    1
@<TRIPOS>MOLECULE
*****
 39 43 0 0 0
SMALL
GASTEIGER

@<TRIPOS>ATOM
      1 CA         63.2590   86.8071   13.7895 C.3     2  LEU2        0.1523
      2 C          64.0083   87.6662   14.7644 C.2     2  LEU2        0.2409
      3 O          64.2984   87.1561   16.1449 O.2     2  LEU2       -0.2733
      4 N          64.4676   89.0353   14.3589 N.am    1  UNK1       -0.2970
      5 C          64.1776   89.5454   12.9785 C.3     1  UNK1        0.1494
      6 C          63.4283   88.6864   12.0036 C.2     1  UNK1        0.2444
      7 O          63.1382   89.1965   10.6230 O.2     1  UNK1       -0.2731
      8 N          62.9690   87.3172   12.4091 N.am    2  LEU2       -0.2615
      9 H          64.9595   89.5992   14.9988 H       1  UNK1        0.1499
     10 C          64.6369   90.9146   12.5729 C.3     1  UNK1        0.0356
     11 C          64.4214   91.5564   11.2344 C.3     1  UNK1        0.0285
     12 C          65.0437   92.9208   11.2689 C.ar    1  UNK1       -0.0261
     13 C          65.1414   94.0058   10.2378 C.ar    1  UNK1       -0.0046
     14 C          65.8392   95.2922   10.5665 C.ar    1  UNK1       -0.0003
     15 C          66.4393   95.4937   11.9264 C.ar    1  UNK1       -0.0003
     16 C          66.3416   94.4087   12.9576 C.ar    1  UNK1       -0.0046
     17 C          65.6438   93.1223   12.6288 C.ar    1  UNK1       -0.0261
     18 C          65.3924   91.8824   13.4347 C.3     1  UNK1        0.0285
     19 CB         62.7997   85.4380   14.1951 C.3     2  LEU2        0.0292
     20 CD1        65.2023   84.4548   14.0914 C.3     2  LEU2        0.0001
     21 CG         63.8014   84.4077   14.6254 C.3     2  LEU2        0.0021
     22 CD2        63.4021   83.3304   15.5898 C.3     2  LEU2        0.0001
     23 C          62.2196   86.4581   11.4341 C.3     0  UNK0        0.1751
     24 C          62.6047   85.0200   11.2515 C.ar    0  UNK0        0.0047
     25 C          63.5433   84.6291   10.1486 C.ar    0  UNK0        0.0009
     26 C          63.9284   83.1909    9.9660 C.ar    0  UNK0        0.0372
     27 C          63.3749   82.1436   10.8862 C.ar    0  UNK0        0.1454
     28 O          63.5725   80.6581   10.9504 O.2     0  UNK0       -0.4504
     29 C          62.7560   80.1308   12.0929 C.ar    0  UNK0        0.1796
     30 C          62.0538   81.2905   12.7348 C.ar    0  UNK0        0.0437
     31 C          62.4363   82.5345   11.9890 C.ar    0  UNK0        0.0375
     32 C          62.0512   83.9727   12.1717 C.ar    0  UNK0        0.0009
     33 C          61.0853   87.0373   10.6418 C.2     0  UNK0        0.2449
     34 O          59.9279   87.6791   11.3480 O.2     0  UNK0       -0.2729
     35 N          61.1082   86.9746    9.1432 N.am    0  UNK0       -0.3043
     36 H          61.8677   86.5533    8.6797 H       0  UNK0        0.1494
     37 C          59.9738   87.5537    8.3509 C.3     0  UNK0        0.0717
     38 C          59.8910   89.0354    8.1326 C.3     0  UNK0        0.0213
     39 C          58.9222   86.6511    7.7769 C.3     0  UNK0        0.0213
@<TRIPOS>BOND
     1    20    21    1
     2    21    22    1
     3    21    19    1
     4     1    19    1
     5     1     2    1
     6     2     3    2
     7     2     4   am
     8     4     5    1
     9     5    10    1
    10    10    11    1
    11    11    12    1
    12    12    13   ar
    13    13    14   ar
    14    14    15   ar
    15    15    16   ar
    16    16    17   ar
    17    17    18    1
    18     5     6    1
    19     6     7    2
    20     6     8   am
    21    23     8    1
    22    23    33    1
    23    33    34    2
    24    33    35   am
    25    35    37    1
    26    37    38    1
    27    37    39    1
    28    23    24    1
    29    24    25   ar
    30    25    26   ar
    31    26    27   ar
    32    27    28   ar
    33    28    29   ar
    34    29    30   ar
    35    30    31   ar
    36    31    32   ar
    37     8     1    1
    38    32    24   ar
    39    18    10    1
    40    31    27   ar
    41    17    12   ar
    42     4     9    1
    43    35    36    1
@<TRIPOS>MOLECULE
*****
 39 43 0 0 0
SMALL
GASTEIGER

@<TRIPOS>ATOM
      1 CA         63.8556   87.5800   14.0447 C.3     2  LEU2        0.1523
      2 C          64.3257   86.3840   14.8182 C.2     2  LEU2        0.2409
      3 O          64.9729   86.5651   16.1593 O.2     2  LEU2       -0.2733
      4 N          64.1488   85.0068   14.2507 N.am    1  UNK1       -0.2970
      5 C          63.5017   84.8256   12.9097 C.3     1  UNK1        0.1494
      6 C          63.0316   86.0217   12.1361 C.2     1  UNK1        0.2444
      7 O          62.3844   85.8406   10.7950 O.2     1  UNK1       -0.2731
      8 N          63.2085   87.3989   12.7036 N.am    2  LEU2       -0.2615
      9 H          64.4574   84.2218   14.7584 H       1  UNK1        0.1499
     10 C          63.3247   83.4485   12.3422 C.3     1  UNK1        0.0356
     11 C          62.9173   82.2248   13.1081 C.3     1  UNK1        0.0285
     12 C          62.8649   81.0732   12.1484 C.ar    1  UNK1       -0.0261
     13 C          62.5241   79.6246   12.3366 C.ar    1  UNK1       -0.0046
     14 C          62.5584   78.6879   11.1655 C.ar    1  UNK1       -0.0003
     15 C          62.9335   79.1998    9.8064 C.ar    1  UNK1       -0.0003
     16 C          63.2742   80.6484    9.6182 C.ar    1  UNK1       -0.0046
     17 C          63.2399   81.5851   10.7893 C.ar    1  UNK1       -0.0261
     18 C          63.5241   83.0531   10.9090 C.3     1  UNK1        0.0285
     19 CB         64.0326   88.9572   14.6122 C.3     2  LEU2        0.0292
     20 CD1        63.5143   90.7093   16.4591 C.3     2  LEU2        0.0001
     21 CG         63.4270   89.3048   15.9397 C.3     2  LEU2        0.0021
     22 CD2        62.7341   88.2480   16.7479 C.3     2  LEU2        0.0001
     23 C          62.7384   88.5950   11.9300 C.3     0  UNK0        0.1751
     24 C          63.5500   89.8564   11.9329 C.ar    0  UNK0        0.0047
     25 C          63.5312   90.7630   10.7379 C.ar    0  UNK0        0.0009
     26 C          64.3428   92.0245   10.7408 C.ar    0  UNK0        0.0372
     27 C          65.1732   92.3794   11.9386 C.ar    0  UNK0        0.1454
     28 O          66.0689   93.5470   12.2286 O.2     0  UNK0       -0.4504
     29 C          66.6413   93.3621   13.6027 C.ar    0  UNK0        0.1796
     30 C          66.0992   92.0801   14.1620 C.ar    0  UNK0        0.0437
     31 C          65.1919   91.4728   13.1335 C.ar    0  UNK0        0.0375
     32 C          64.3803   90.2113   13.1306 C.ar    0  UNK0        0.0009
     33 C          61.4566   88.5295   11.1536 C.2     0  UNK0        0.2449
     34 O          60.1458   88.7437   11.8505 O.2     0  UNK0       -0.2729
     35 N          61.4858   88.2500    9.6801 N.am    0  UNK0       -0.3043
     36 H          62.3461   88.1094    9.2226 H       0  UNK0        0.1494
     37 C          60.2041   88.1845    8.9037 C.3     0  UNK0        0.0717
     38 C          59.3880   86.9260    8.9080 C.3     0  UNK0        0.0213
     39 C          59.7384   89.3777    8.1229 C.3     0  UNK0        0.0213
@<TRIPOS>BOND
     1    20    21    1
     2    21    22    1
     3    21    19    1
     4     1    19    1
     5     1     2    1
     6     2     3    2
     7     2     4   am
     8     4     5    1
     9     5    10    1
    10    10    11    1
    11    11    12    1
    12    12    13   ar
    13    13    14   ar
    14    14    15   ar
    15    15    16   ar
    16    16    17   ar
    17    17    18    1
    18     5     6    1
    19     6     7    2
    20     6     8   am
    21    23     8    1
    22    23    33    1
    23    33    34    2
    24    33    35   am
    25    35    37    1
    26    37    38    1
    27    37    39    1
    28    23    24    1
    29    24    25   ar
    30    25    26   ar
    31    26    27   ar
    32    27    28   ar
    33    28    29   ar
    34    29    30   ar
    35    30    31   ar
    36    31    32   ar
    37     8     1    1
    38    32    24   ar
    39    18    10    1
    40    31    27   ar
    41    17    12   ar
    42     4     9    1
    43    35    36    1
@<TRIPOS>MOLECULE
*****
 39 43 0 0 0
SMALL
GASTEIGER

@<TRIPOS>ATOM
      1 CA         63.8527   87.5670   14.0549 C.3     2  LEU2        0.1523
      2 C          64.3185   86.3705   14.8305 C.2     2  LEU2        0.2409
      3 O          64.9615   86.5512   16.1736 O.2     2  LEU2       -0.2733
      4 N          64.1412   84.9934   14.2629 N.am    1  UNK1       -0.2970
      5 C          63.4982   84.8127   12.9199 C.3     1  UNK1        0.1494
      6 C          63.0325   86.0092   12.1443 C.2     1  UNK1        0.2444
      7 O          62.3894   85.8286   10.8012 O.2     1  UNK1       -0.2731
      8 N          63.2097   87.3863   12.7119 N.am    2  LEU2       -0.2615
      9 H          64.4469   84.2081   14.7720 H       1  UNK1        0.1499
     10 C          63.3210   83.4356   12.3523 C.3     1  UNK1        0.0356
     11 C          63.5295   83.0382   10.9211 C.3     1  UNK1        0.0285
     12 C          63.2415   81.5711   10.8006 C.ar    1  UNK1       -0.0261
     13 C          63.2813   80.6332    9.6307 C.ar    1  UNK1       -0.0046
     14 C          62.9345   79.1859    9.8176 C.ar    1  UNK1       -0.0003
     15 C          62.5479   78.6765   11.1745 C.ar    1  UNK1       -0.0003
     16 C          62.5081   79.6144   12.3444 C.ar    1  UNK1       -0.0046
     17 C          62.8549   81.0617   12.1574 C.ar    1  UNK1       -0.0261
     18 C          62.9040   82.2140   13.1164 C.3     1  UNK1        0.0285
     19 CB         64.0300   88.9441   14.6224 C.3     2  LEU2        0.0292
     20 CD1        62.7262   88.2386   16.7561 C.3     2  LEU2        0.0001
     21 CG         63.4125   89.2962   15.9433 C.3     2  LEU2        0.0021
     22 CD2        63.4813   90.7059   16.4515 C.3     2  LEU2        0.0001
     23 C          62.7440   88.5828   11.9362 C.3     0  UNK0        0.1751
     24 C          63.5565   89.8437   11.9429 C.ar    0  UNK0        0.0047
     25 C          63.5343   90.7565   10.7527 C.ar    0  UNK0        0.0009
     26 C          64.3469   92.0173   10.7594 C.ar    0  UNK0        0.0372
     27 C          65.1816   92.3654   11.9562 C.ar    0  UNK0        0.1454
     28 O          66.0792   93.5309   12.2491 O.2     0  UNK0       -0.4504
     29 C          66.6561   93.3384   13.6203 C.ar    0  UNK0        0.1796
     30 C          66.1150   92.0540   14.1747 C.ar    0  UNK0        0.0437
     31 C          65.2037   91.4526   13.1462 C.ar    0  UNK0        0.0375
     32 C          64.3912   90.1917   13.1396 C.ar    0  UNK0        0.0009
     33 C          61.4657   88.5184   11.1540 C.2     0  UNK0        0.2449
     34 O          60.1517   88.7307   11.8456 O.2     0  UNK0       -0.2729
     35 N          61.5014   88.2418    9.6801 N.am    0  UNK0       -0.3043
     36 H          62.3639   88.1025    9.2262 H       0  UNK0        0.1494
     37 C          60.2232   88.1774    8.8979 C.3     0  UNK0        0.0717
     38 C          59.4033   86.9214    8.9031 C.3     0  UNK0        0.0213
     39 C          59.7649   89.3690    8.1105 C.3     0  UNK0        0.0213
@<TRIPOS>BOND
     1    20    21    1
     2    21    22    1
     3    21    19    1
     4     1    19    1
     5     1     2    1
     6     2     3    2
     7     2     4   am
     8     4     5    1
     9     5    10    1
    10    10    11    1
    11    11    12    1
    12    12    13   ar
    13    13    14   ar
    14    14    15   ar
    15    15    16   ar
    16    16    17   ar
    17    17    18    1
    18     5     6    1
    19     6     7    2
    20     6     8   am
    21    23     8    1
    22    23    33    1
    23    33    34    2
    24    33    35   am
    25    35    37    1
    26    37    38    1
    27    37    39    1
    28    23    24    1
    29    24    25   ar
    30    25    26   ar
    31    26    27   ar
    32    27    28   ar
    33    28    29   ar
    34    29    30   ar
    35    30    31   ar
    36    31    32   ar
    37     8     1    1
    38    32    24   ar
    39    18    10    1
    40    31    27   ar
    41    17    12   ar
    42     4     9    1
    43    35    36    1
@<TRIPOS>MOLECULE
*****
 39 43 0 0 0
SMALL
GASTEIGER

@<TRIPOS>ATOM
      1 CA         64.7957   90.0231   14.3310 C.3     2  LEU2        0.1523
      2 C          65.8106   91.0816   14.6467 C.2     2  LEU2        0.2409
      3 O          66.4484   91.1283   16.0036 O.2     2  LEU2       -0.2733
      4 N          66.1877   92.0934   13.6055 N.am    1  UNK1       -0.2970
      5 C          65.5500   92.0467   12.2486 C.3     1  UNK1        0.1494
      6 C          64.5352   90.9883   11.9330 C.2     1  UNK1        0.2444
      7 O          63.8974   90.9415   10.5760 O.2     1  UNK1       -0.2731
      8 N          64.1580   89.9765   12.9741 N.am    2  LEU2       -0.2615
      9 H          66.8538   92.7881   13.8127 H       1  UNK1        0.1499
     10 C          65.9271   93.0585   11.2075 C.3     1  UNK1        0.0356
     11 C          65.3585   94.4401   11.0738 C.3     1  UNK1        0.0285
     12 C          66.0190   95.1018    9.9009 C.ar    1  UNK1       -0.0261
     13 C          65.8572   96.4644    9.2949 C.ar    1  UNK1       -0.0046
     14 C          66.6722   96.8543    8.0976 C.ar    1  UNK1       -0.0003
     15 C          67.6492   95.8817    7.5063 C.ar    1  UNK1       -0.0003
     16 C          67.8110   94.5192    8.1123 C.ar    1  UNK1       -0.0046
     17 C          66.9960   94.1292    9.3096 C.ar    1  UNK1       -0.0261
     18 C          66.9392   92.8664   10.1171 C.3     1  UNK1        0.0285
     19 CB         64.4186   89.0113   15.3722 C.3     2  LEU2        0.0292
     20 CD1        63.0838   90.8016   16.6999 C.3     2  LEU2        0.0001
     21 CG         63.4189   89.3640   16.4333 C.3     2  LEU2        0.0021
     22 CD2        62.7542   88.2792   17.2279 C.3     2  LEU2        0.0001
     23 C          63.1431   88.9180   12.6584 C.3     0  UNK0        0.1751
     24 C          63.4589   87.4748   12.9183 C.ar    0  UNK0        0.0047
     25 C          64.3123   87.0933   14.0915 C.ar    0  UNK0        0.0009
     26 C          64.6281   85.6502   14.3515 C.ar    0  UNK0        0.0372
     27 C          64.0905   84.5885   13.4383 C.ar    0  UNK0        0.1454
     28 O          64.2325   83.0953   13.4422 O.2     0  UNK0       -0.4504
     29 C          63.4668   82.5538   12.2714 C.ar    0  UNK0        0.1796
     30 C          62.8517   83.7125   11.5440 C.ar    0  UNK0        0.0437
     31 C          63.2372   84.9700   12.2652 C.ar    0  UNK0        0.0375
     32 C          62.9214   86.4131   12.0052 C.ar    0  UNK0        0.0009
     33 C          61.8125   89.3026   12.0827 C.2     0  UNK0        0.2449
     34 O          60.6781   89.6670   12.9940 O.2     0  UNK0       -0.2729
     35 N          61.6162   89.3229   10.5957 N.am    0  UNK0       -0.3043
     36 H          62.3608   89.0837    9.9976 H       0  UNK0        0.1494
     37 C          60.2856   89.7076   10.0200 C.3     0  UNK0        0.0717
     38 C          59.3788   90.6306   10.7787 C.3     0  UNK0        0.0213
     39 C          59.8618   89.1692    8.6856 C.3     0  UNK0        0.0213
@<TRIPOS>BOND
     1    20    21    1
     2    21    22    1
     3    21    19    1
     4     1    19    1
     5     1     2    1
     6     2     3    2
     7     2     4   am
     8     4     5    1
     9     5    10    1
    10    10    11    1
    11    11    12    1
    12    12    13   ar
    13    13    14   ar
    14    14    15   ar
    15    15    16   ar
    16    16    17   ar
    17    17    18    1
    18     5     6    1
    19     6     7    2
    20     6     8   am
    21    23     8    1
    22    23    33    1
    23    33    34    2
    24    33    35   am
    25    35    37    1
    26    37    38    1
    27    37    39    1
    28    23    24    1
    29    24    25   ar
    30    25    26   ar
    31    26    27   ar
    32    27    28   ar
    33    28    29   ar
    34    29    30   ar
    35    30    31   ar
    36    31    32   ar
    37     8     1    1
    38    32    24   ar
    39    18    10    1
    40    31    27   ar
    41    17    12   ar
    42     4     9    1
    43    35    36    1
@<TRIPOS>MOLECULE
*****
 39 43 0 0 0
SMALL
GASTEIGER

@<TRIPOS>ATOM
      1 CA         63.4993   89.6443   13.6745 C.3     2  LEU2        0.1523
      2 C          64.5459   90.5183   14.2995 C.2     2  LEU2        0.2409
      3 O          64.9197   90.3280   15.7397 O.2     2  LEU2       -0.2733
      4 N          65.2188   91.5827   13.4844 N.am    1  UNK1       -0.2970
      5 C          64.8450   91.7730   12.0443 C.3     1  UNK1        0.1494
      6 C          63.7984   90.8990   11.4193 C.2     1  UNK1        0.2444
      7 O          63.4246   91.0893    9.9791 O.2     1  UNK1       -0.2731
      8 N          63.1256   89.8346   12.2344 N.am    2  LEU2       -0.2615
      9 H          65.9057   92.1563   13.8946 H       1  UNK1        0.1499
     10 C          65.5178   92.8374   11.2292 C.3     1  UNK1        0.0356
     11 C          65.4353   94.3158   11.4690 C.3     1  UNK1        0.0285
     12 C          66.2578   95.0023   10.4191 C.ar    1  UNK1       -0.0261
     13 C          66.5450   96.4511   10.1576 C.ar    1  UNK1       -0.0046
     14 C          67.4232   96.8458    9.0073 C.ar    1  UNK1       -0.0003
     15 C          68.0140   95.7917    8.1187 C.ar    1  UNK1       -0.0003
     16 C          67.7268   94.3429    8.3802 C.ar    1  UNK1       -0.0046
     17 C          66.8487   93.9482    9.5305 C.ar    1  UNK1       -0.0261
     18 C          66.3914   92.6102   10.0311 C.3     1  UNK1        0.0285
     19 CB         62.8265   88.5799   14.4896 C.3     2  LEU2        0.0292
     20 CD1        64.7682   86.8956   14.8677 C.3     2  LEU2        0.0001
     21 CG         63.6363   87.7165   15.4109 C.3     2  LEU2        0.0021
     22 CD2        63.3143   87.6740   16.8753 C.3     2  LEU2        0.0001
     23 C          62.0790   88.9606   11.6093 C.3     0  UNK0        0.1751
     24 C          62.4586   87.6253   11.0410 C.ar    0  UNK0        0.0047
     25 C          62.4669   87.4174    9.5554 C.ar    0  UNK0        0.0009
     26 C          62.8465   86.0822    8.9871 C.ar    0  UNK0        0.0372
     27 C          63.2178   84.9548    9.9043 C.ar    0  UNK0        0.1454
     28 O          63.6327   83.5384    9.6368 O.2     0  UNK0       -0.4504
     29 C          63.8808   82.8709   10.9570 C.ar    0  UNK0        0.1796
     30 C          63.6192   83.8748   12.0404 C.ar    0  UNK0        0.0437
     31 C          63.2095   85.1627   11.3898 C.ar    0  UNK0        0.0375
     32 C          62.8299   86.4980   11.9581 C.ar    0  UNK0        0.0009
     33 C          60.6528   89.4218   11.5525 C.2     0  UNK0        0.2449
     34 O          60.1921   90.2979   10.4255 O.2     0  UNK0       -0.2729
     35 N          59.6872   89.0069   12.6229 N.am    0  UNK0       -0.3043
     36 H          59.9895   88.4319   13.3626 H       0  UNK0        0.1494
     37 C          58.2610   89.4681   12.5661 C.3     0  UNK0        0.0717
     38 C          57.1718   88.6092   13.1369 C.3     0  UNK0        0.0213
     39 C          57.9241   90.7882   11.9387 C.3     0  UNK0        0.0213
@<TRIPOS>BOND
     1    20    21    1
     2    21    22    1
     3    21    19    1
     4     1    19    1
     5     1     2    1
     6     2     3    2
     7     2     4   am
     8     4     5    1
     9     5    10    1
    10    10    11    1
    11    11    12    1
    12    12    13   ar
    13    13    14   ar
    14    14    15   ar
    15    15    16   ar
    16    16    17   ar
    17    17    18    1
    18     5     6    1
    19     6     7    2
    20     6     8   am
    21    23     8    1
    22    23    33    1
    23    33    34    2
    24    33    35   am
    25    35    37    1
    26    37    38    1
    27    37    39    1
    28    23    24    1
    29    24    25   ar
    30    25    26   ar
    31    26    27   ar
    32    27    28   ar
    33    28    29   ar
    34    29    30   ar
    35    30    31   ar
    36    31    32   ar
    37     8     1    1
    38    32    24   ar
    39    18    10    1
    40    31    27   ar
    41    17    12   ar
    42     4     9    1
    43    35    36    1
@<TRIPOS>MOLECULE
*****
 39 43 0 0 0
SMALL
GASTEIGER

@<TRIPOS>ATOM
      1 CA         61.9553   87.2064   11.1140 C.3     2  LEU2        0.1523
      2 C          61.9735   88.5770   10.5049 C.2     2  LEU2        0.2409
      3 O          61.1499   88.8667    9.2851 O.2     2  LEU2       -0.2733
      4 N          62.8154   89.6579   11.1155 N.am    1  UNK1       -0.2970
      5 C          63.6390   89.3682   12.3352 C.3     1  UNK1        0.1494
      6 C          63.6208   87.9976   12.9443 C.2     1  UNK1        0.2444
      7 O          64.4444   87.7079   14.1640 O.2     1  UNK1       -0.2731
      8 N          62.7789   86.9167   12.3337 N.am    2  LEU2       -0.2615
      9 H          62.8274   90.5575   10.7157 H       1  UNK1        0.1499
     10 C          64.4809   90.4492   12.9458 C.3     1  UNK1        0.0356
     11 C          65.0813   90.4287   14.3202 C.3     1  UNK1        0.0285
     12 C          65.8416   91.7072   14.5131 C.ar    1  UNK1       -0.0261
     13 C          66.6360   92.2379   15.6695 C.ar    1  UNK1       -0.0046
     14 C          67.2997   93.5794   15.5707 C.ar    1  UNK1       -0.0003
     15 C          67.1692   94.3902   14.3154 C.ar    1  UNK1       -0.0003
     16 C          66.3749   93.8594   13.1590 C.ar    1  UNK1       -0.0046
     17 C          65.7111   92.5180   13.2579 C.ar    1  UNK1       -0.0261
     18 C          64.8701   91.7405   12.2893 C.3     1  UNK1        0.0285
     19 CB         61.1134   86.1254   10.5034 C.3     2  LEU2        0.0292
     20 CD1        62.1894   85.6219    8.1928 C.3     2  LEU2        0.0001
     21 CG         60.9968   86.0181    9.0118 C.3     2  LEU2        0.0021
     22 CD2        59.6875   86.3069    8.3391 C.3     2  LEU2        0.0001
     23 C          62.7607   85.5460   12.9428 C.3     0  UNK0        0.1751
     24 C          63.0415   84.3432   12.0916 C.ar    0  UNK0        0.0047
     25 C          63.8143   84.4920   10.8146 C.ar    0  UNK0        0.0009
     26 C          64.0951   83.2893    9.9634 C.ar    0  UNK0        0.0372
     27 C          63.6030   81.9377   10.3893 C.ar    0  UNK0        0.1454
     28 O          63.7259   80.5812    9.7610 O.2     0  UNK0       -0.4504
     29 C          63.0290   79.5940   10.6498 C.ar    0  UNK0        0.1796
     30 C          62.4754   80.3405   11.8272 C.ar    0  UNK0        0.0437
     31 C          62.8302   81.7890   11.6662 C.ar    0  UNK0        0.0375
     32 C          62.5495   82.9917   12.5174 C.ar    0  UNK0        0.0009
     33 C          62.4617   85.3781   14.4031 C.2     0  UNK0        0.2449
     34 O          61.3299   84.4962   14.8404 O.2     0  UNK0       -0.2729
     35 N          63.2946   86.0923   15.4261 N.am    0  UNK0       -0.3043
     36 H          64.0374   86.6711   15.1391 H       0  UNK0        0.1494
     37 C          62.9956   85.9244   16.8864 C.3     0  UNK0        0.0717
     38 C          62.8782   84.5496   17.4747 C.3     0  UNK0        0.0213
     39 C          62.8140   87.1313   17.7583 C.3     0  UNK0        0.0213
@<TRIPOS>BOND
     1    20    21    1
     2    21    22    1
     3    21    19    1
     4     1    19    1
     5     1     2    1
     6     2     3    2
     7     2     4   am
     8     4     5    1
     9     5    10    1
    10    10    11    1
    11    11    12    1
    12    12    13   ar
    13    13    14   ar
    14    14    15   ar
    15    15    16   ar
    16    16    17   ar
    17    17    18    1
    18     5     6    1
    19     6     7    2
    20     6     8   am
    21    23     8    1
    22    23    33    1
    23    33    34    2
    24    33    35   am
    25    35    37    1
    26    37    38    1
    27    37    39    1
    28    23    24    1
    29    24    25   ar
    30    25    26   ar
    31    26    27   ar
    32    27    28   ar
    33    28    29   ar
    34    29    30   ar
    35    30    31   ar
    36    31    32   ar
    37     8     1    1
    38    32    24   ar
    39    18    10    1
    40    31    27   ar
    41    17    12   ar
    42     4     9    1
    43    35    36    1
@<TRIPOS>MOLECULE
*****
 39 43 0 0 0
SMALL
GASTEIGER

@<TRIPOS>ATOM
      1 CA         63.2684   89.7400   14.3651 C.3     2  LEU2        0.1523
      2 C          63.8549   90.9679   14.9960 C.2     2  LEU2        0.2409
      3 O          63.7444   91.1758   16.4775 O.2     2  LEU2       -0.2733
      4 N          64.5520   91.9881   14.1455 N.am    1  UNK1       -0.2970
      5 C          64.6625   91.7804   12.6641 C.3     1  UNK1        0.1494
      6 C          64.0759   90.5524   12.0332 C.2     1  UNK1        0.2444
      7 O          64.1864   90.3446   10.5518 O.2     1  UNK1       -0.2731
      8 N          63.3789   89.5322   12.8837 N.am    2  LEU2       -0.2615
      9 H          64.9369   92.7941   14.5596 H       1  UNK1        0.1499
     10 C          65.3595   92.8006   11.8137 C.3     1  UNK1        0.0356
     11 C          65.6011   94.2355   12.1778 C.3     1  UNK1        0.0285
     12 C          66.3283   94.8867   11.0389 C.ar    1  UNK1       -0.0261
     13 C          66.8280   96.2864   10.8365 C.ar    1  UNK1       -0.0046
     14 C          67.5356   96.6537    9.5659 C.ar    1  UNK1       -0.0003
     15 C          67.7433   95.6213    8.4977 C.ar    1  UNK1       -0.0003
     16 C          67.2436   94.2216    8.7002 C.ar    1  UNK1       -0.0046
     17 C          66.5361   93.8543    9.9708 C.ar    1  UNK1       -0.0261
     18 C          65.9373   92.5650   10.4496 C.3     1  UNK1        0.0285
     19 CB         62.5713   88.7198   15.2156 C.3     2  LEU2        0.0292
     20 CD1        62.9780   87.9445   17.6617 C.3     2  LEU2        0.0001
     21 CG         63.3522   87.9121   16.2095 C.3     2  LEU2        0.0021
     22 CD2        64.5073   87.0720   15.7512 C.3     2  LEU2        0.0001
     23 C          62.7923   88.3042   12.2528 C.3     0  UNK0        0.1751
     24 C          61.8026   88.4360   11.1334 C.ar    0  UNK0        0.0047
     25 C          60.9959   89.6925   10.9895 C.ar    0  UNK0        0.0009
     26 C          60.0062   89.8243    9.8701 C.ar    0  UNK0        0.0372
     27 C          59.8231   88.6996    8.8946 C.ar    0  UNK0        0.1454
     28 O          58.9299   88.5428    7.6998 O.2     0  UNK0       -0.4504
     29 C          59.1845   87.1894    7.1053 C.ar    0  UNK0        0.1796
     30 C          60.2350   86.5098    7.9326 C.ar    0  UNK0        0.0437
     31 C          60.6298   87.4432    9.0384 C.ar    0  UNK0        0.0375
     32 C          61.6195   87.3114   10.1578 C.ar    0  UNK0        0.0009
     33 C          63.1955   86.9445   12.7412 C.2     0  UNK0        0.2449
     34 O          64.5484   86.7391   13.3557 O.2     0  UNK0       -0.2729
     35 N          62.2459   85.7902   12.6151 N.am    0  UNK0       -0.3043
     36 H          61.3580   85.9251   12.2118 H       0  UNK0        0.1494
     37 C          62.6491   84.4305   13.1035 C.3     0  UNK0        0.0717
     38 C          62.4732   84.0703   14.5489 C.3     0  UNK0        0.0213
     39 C          63.2281   83.4311   12.1466 C.3     0  UNK0        0.0213
@<TRIPOS>BOND
     1    20    21    1
     2    21    22    1
     3    21    19    1
     4     1    19    1
     5     1     2    1
     6     2     3    2
     7     2     4   am
     8     4     5    1
     9     5    10    1
    10    10    11    1
    11    11    12    1
    12    12    13   ar
    13    13    14   ar
    14    14    15   ar
    15    15    16   ar
    16    16    17   ar
    17    17    18    1
    18     5     6    1
    19     6     7    2
    20     6     8   am
    21    23     8    1
    22    23    33    1
    23    33    34    2
    24    33    35   am
    25    35    37    1
    26    37    38    1
    27    37    39    1
    28    23    24    1
    29    24    25   ar
    30    25    26   ar
    31    26    27   ar
    32    27    28   ar
    33    28    29   ar
    34    29    30   ar
    35    30    31   ar
    36    31    32   ar
    37     8     1    1
    38    32    24   ar
    39    18    10    1
    40    31    27   ar
    41    17    12   ar
    42     4     9    1
    43    35    36    1
@<TRIPOS>MOLECULE
*****
 39 43 0 0 0
SMALL
GASTEIGER

@<TRIPOS>ATOM
      1 CA         63.6482   90.0568   14.7930 C.3     2  LEU2        0.1523
      2 C          63.6761   89.1100   15.9561 C.2     2  LEU2        0.2409
      3 O          63.7896   89.6424   17.3539 O.2     2  LEU2       -0.2733
      4 N          63.5905   87.6310   15.7215 N.am    1  UNK1       -0.2970
      5 C          63.4771   87.0986   14.3238 C.3     1  UNK1        0.1494
      6 C          63.4492   88.0453   13.1607 C.2     1  UNK1        0.2444
      7 O          63.3357   87.5130   11.7628 O.2     1  UNK1       -0.2731
      8 N          63.5348   89.5244   13.3953 N.am    2  LEU2       -0.2615
      9 H          63.6088   87.0096   16.4849 H       1  UNK1        0.1499
     10 C          63.3915   85.6196   14.0892 C.3     1  UNK1        0.0356
     11 C          64.3032   84.8114   13.2141 C.3     1  UNK1        0.0285
     12 C          63.8544   83.3813   13.2726 C.ar    1  UNK1       -0.0261
     13 C          64.3748   82.1383   12.6138 C.ar    1  UNK1       -0.0046
     14 C          63.7061   80.8196   12.8662 C.ar    1  UNK1       -0.0003
     15 C          62.5170   80.7439   13.7774 C.ar    1  UNK1       -0.0003
     16 C          61.9966   81.9869   14.4362 C.ar    1  UNK1       -0.0046
     17 C          62.6653   83.3056   14.1838 C.ar    1  UNK1       -0.0261
     18 C          62.3792   84.6889   14.6884 C.3     1  UNK1        0.0285
     19 CB         63.7338   91.5358   15.0276 C.3     2  LEU2        0.0292
     20 CD1        66.2186   92.0173   15.6141 C.3     2  LEU2        0.0001
     21 CG         64.7629   92.0876   15.9691 C.3     2  LEU2        0.0021
     22 CD2        64.3363   92.7096   17.2657 C.3     2  LEU2        0.0001
     23 C          63.5069   90.4711   12.2320 C.3     0  UNK0        0.1751
     24 C          64.7083   91.3141   11.9222 C.ar    0  UNK0        0.0047
     25 C          65.9613   91.1608   12.7325 C.ar    0  UNK0        0.0009
     26 C          67.1627   92.0038   12.4227 C.ar    0  UNK0        0.0372
     27 C          67.1111   93.0001   11.3025 C.ar    0  UNK0        0.1454
     28 O          68.1297   93.9626   10.7677 O.2     0  UNK0       -0.4504
     29 C          67.5062   94.7108    9.6268 C.ar    0  UNK0        0.1796
     30 C          66.1024   94.2106    9.4566 C.ar    0  UNK0        0.0437
     31 C          65.8582   93.1534   10.4922 C.ar    0  UNK0        0.0375
     32 C          64.6568   92.3104   10.8020 C.ar    0  UNK0        0.0009
     33 C          62.2776   90.5748   11.3787 C.2     0  UNK0        0.2449
     34 O          62.3948   90.9894    9.9419 O.2     0  UNK0       -0.2729
     35 N          60.9311   90.2640   11.9622 N.am    0  UNK0       -0.3043
     36 H          60.8542   89.9919   12.9053 H       0  UNK0        0.1494
     37 C          59.7019   90.3677   11.1090 C.3     0  UNK0        0.0717
     38 C          59.6180   89.6068    9.8190 C.3     0  UNK0        0.0213
     39 C          58.5565   91.2322   11.5456 C.3     0  UNK0        0.0213
@<TRIPOS>BOND
     1    20    21    1
     2    21    22    1
     3    21    19    1
     4     1    19    1
     5     1     2    1
     6     2     3    2
     7     2     4   am
     8     4     5    1
     9     5    10    1
    10    10    11    1
    11    11    12    1
    12    12    13   ar
    13    13    14   ar
    14    14    15   ar
    15    15    16   ar
    16    16    17   ar
    17    17    18    1
    18     5     6    1
    19     6     7    2
    20     6     8   am
    21    23     8    1
    22    23    33    1
    23    33    34    2
    24    33    35   am
    25    35    37    1
    26    37    38    1
    27    37    39    1
    28    23    24    1
    29    24    25   ar
    30    25    26   ar
    31    26    27   ar
    32    27    28   ar
    33    28    29   ar
    34    29    30   ar
    35    30    31   ar
    36    31    32   ar
    37     8     1    1
    38    32    24   ar
    39    18    10    1
    40    31    27   ar
    41    17    12   ar
    42     4     9    1
    43    35    36    1
