@<TRIPOS>MOLECULE
*****
 26 28 0 0 0
SMALL
GASTEIGER

@<TRIPOS>ATOM
      1 C          60.0248   90.1808   11.5498 C.3     1  UNL1        0.0527
      2 C          60.9501   89.0007   11.5121 C.ar    1  UNL1        0.0673
      3 N          60.5402   87.5622   11.3995 N.ar    1  UNL1       -0.2283
      4 C          61.7844   86.7245   11.3981 C.ar    1  UNL1        0.1652
      5 S          62.9633   87.6451   11.5098 S.2     1  UNL1       -0.0517
      6 C          62.4476   89.0520   11.5802 C.ar    1  UNL1        0.0471
      7 C          63.2829   90.2923   11.6982 C.ar    1  UNL1        0.0265
      8 C          63.5891   91.1092   10.4780 C.ar    1  UNL1        0.0049
      9 C          64.4245   92.3495   10.5960 C.ar    1  UNL1        0.0339
     10 C          64.9536   92.7728   11.9341 C.ar    1  UNL1        0.1254
     11 N          65.7890   94.0132   12.0521 N.pl3   1  UNL1       -0.3426
     12 N          64.6475   91.9560   13.1543 N.ar    1  UNL1       -0.2296
     13 C          63.8121   90.7157   13.0364 C.ar    1  UNL1        0.1008
     14 H          65.9899   94.5493   11.2512 H       1  UNL1        0.1437
     15 H          66.1363   94.2911   12.9303 H       1  UNL1        0.1437
     16 N          61.8400   85.2286   11.3019 N.am    1  UNL1       -0.2642
     17 C          62.7375   84.4508   12.2181 C.2     1  UNL1        0.2266
     18 O          63.5796   85.1690   13.2306 O.2     1  UNL1       -0.2748
     19 H          61.2873   84.7572   10.6373 H       1  UNL1        0.1567
     20 C          62.7931   82.9550   12.1218 C.3     1  UNL1        0.0692
     21 C          63.2951   83.3226   10.7570 C.3     1  UNL1        0.0091
     22 C          63.0230   81.5868   11.5516 C.3     1  UNL1        0.0086
     23 C          62.7316   80.3705   12.3797 C.3     1  UNL1        0.0005
     24 C          62.2102   80.5224   13.7780 C.3     1  UNL1        0.0000
     25 C          61.9803   81.8906   14.3482 C.3     1  UNL1        0.0005
     26 C          62.2718   83.1069   13.5201 C.3     1  UNL1        0.0086
@<TRIPOS>BOND
     1     1     2    1
     2     2     3   ar
     3     3     4   ar
     4     4    16    1
     5    16    17   am
     6    17    18    2
     7    17    20    1
     8    20    21    1
     9    20    22    1
    10    22    23    1
    11    23    24    1
    12    24    25    1
    13    25    26    1
    14     4     5   ar
    15     5     6   ar
    16     6     7    1
    17     7     8   ar
    18     8     9   ar
    19     9    10   ar
    20    10    11    1
    21    10    12   ar
    22    12    13   ar
    23     6     2   ar
    24    13     7   ar
    25    26    20    1
    26    16    19    1
    27    11    14    1
    28    11    15    1
@<TRIPOS>MOLECULE
*****
 26 28 0 0 0
SMALL
GASTEIGER

@<TRIPOS>ATOM
      1 C          61.6908   85.7381   10.8894 C.3     1  UNL1        0.0527
      2 C          62.5718   86.1113   12.0447 C.ar    1  UNL1        0.0673
      3 N          63.0541   87.4925   12.3754 N.ar    1  UNL1       -0.2283
      4 C          63.9055   87.4036   13.6072 C.ar    1  UNL1        0.1652
      5 S          63.9495   85.9674   14.0377 S.2     1  UNL1       -0.0517
      6 C          63.1251   85.1686   13.0719 C.ar    1  UNL1        0.0471
      7 C          62.8947   83.6875   13.1244 C.ar    1  UNL1        0.0265
      8 C          63.1165   82.8500   11.8999 C.ar    1  UNL1        0.0049
      9 C          62.8860   81.3687   11.9524 C.ar    1  UNL1        0.0339
     10 C          62.4338   80.7249   13.2294 C.ar    1  UNL1        0.1254
     11 N          62.2033   79.2436   13.2819 N.pl3   1  UNL1       -0.3426
     12 N          62.2119   81.5622   14.4540 N.ar    1  UNL1       -0.2296
     13 C          62.4424   83.0436   14.4015 C.ar    1  UNL1        0.1008
     14 H          62.3489   78.6940   12.4782 H       1  UNL1        0.1437
     15 H          61.9065   78.8210   14.1201 H       1  UNL1        0.1437
     16 N          64.5924   88.5498   14.2887 N.am    1  UNL1       -0.2642
     17 C          63.7965   89.7352   14.7482 C.2     1  UNL1        0.2266
     18 O          62.3135   89.7746   14.5261 O.2     1  UNL1       -0.2748
     19 H          65.5657   88.5239   14.4345 H       1  UNL1        0.1567
     20 C          64.4834   90.8814   15.4298 C.3     1  UNL1        0.0692
     21 C          63.3982   90.5984   16.4259 C.3     1  UNL1        0.0091
     22 C          64.7934   91.9292   16.4573 C.3     1  UNL1        0.0086
     23 C          65.9500   92.8619   16.2519 C.3     1  UNL1        0.0005
     24 C          66.7967   92.7467   15.0191 C.3     1  UNL1        0.0000
     25 C          66.4867   91.6988   13.9916 C.3     1  UNL1        0.0005
     26 C          65.3300   90.7662   14.1969 C.3     1  UNL1        0.0086
@<TRIPOS>BOND
     1     1     2    1
     2     2     3   ar
     3     3     4   ar
     4     4    16    1
     5    16    17   am
     6    17    18    2
     7    17    20    1
     8    20    21    1
     9    20    22    1
    10    22    23    1
    11    23    24    1
    12    24    25    1
    13    25    26    1
    14     4     5   ar
    15     5     6   ar
    16     6     7    1
    17     7     8   ar
    18     8     9   ar
    19     9    10   ar
    20    10    11    1
    21    10    12   ar
    22    12    13   ar
    23     6     2   ar
    24    13     7   ar
    25    26    20    1
    26    16    19    1
    27    11    14    1
    28    11    15    1
@<TRIPOS>MOLECULE
*****
 26 28 0 0 0
SMALL
GASTEIGER

@<TRIPOS>ATOM
      1 C          62.3645   90.7382   11.1120 C.3     1  UNL1        0.0527
      2 C          62.6565   89.3623   11.6333 C.ar    1  UNL1        0.0673
      3 N          62.2542   88.0705   10.9858 N.ar    1  UNL1       -0.2283
      4 C          62.7511   86.9465   11.8459 C.ar    1  UNL1        0.1652
      5 S          63.4605   87.5436   13.0249 S.2     1  UNL1       -0.0517
      6 C          63.4021   89.0368   12.8935 C.ar    1  UNL1        0.0471
      7 C          63.9865   90.0299   13.8537 C.ar    1  UNL1        0.0265
      8 C          65.2358   90.7772   13.4921 C.ar    1  UNL1        0.0049
      9 C          65.8203   91.7703   14.4524 C.ar    1  UNL1        0.0339
     10 C          65.1554   92.0160   15.7743 C.ar    1  UNL1        0.1254
     11 N          65.7400   93.0092   16.7347 N.pl3   1  UNL1       -0.3426
     12 N          63.9062   91.2688   16.1360 N.ar    1  UNL1       -0.2296
     13 C          63.3217   90.2756   15.1757 C.ar    1  UNL1        0.1008
     14 H          66.5599   93.4996   16.4973 H       1  UNL1        0.1437
     15 H          65.3037   93.1705   17.6023 H       1  UNL1        0.1437
     16 N          62.5703   85.4824   11.5745 N.am    1  UNL1       -0.2642
     17 C          63.2588   84.4686   12.4395 C.2     1  UNL1        0.2266
     18 O          64.1282   84.9190   13.5759 O.2     1  UNL1       -0.2748
     19 H          61.9997   85.1868   10.8287 H       1  UNL1        0.1567
     20 C          63.0780   83.0045   12.1681 C.3     1  UNL1        0.0692
     21 C          63.6349   83.4473   10.8476 C.3     1  UNL1        0.0091
     22 C          63.0906   81.6941   11.4382 C.3     1  UNL1        0.0086
     23 C          62.6091   80.4495   12.1230 C.3     1  UNL1        0.0005
     24 C          62.1150   80.5152   13.5378 C.3     1  UNL1        0.0000
     25 C          62.1024   81.8255   14.2677 C.3     1  UNL1        0.0005
     26 C          62.5839   83.0702   13.5829 C.3     1  UNL1        0.0086
@<TRIPOS>BOND
     1     1     2    1
     2     2     3   ar
     3     3     4   ar
     4     4    16    1
     5    16    17   am
     6    17    18    2
     7    17    20    1
     8    20    21    1
     9    20    22    1
    10    22    23    1
    11    23    24    1
    12    24    25    1
    13    25    26    1
    14     4     5   ar
    15     5     6   ar
    16     6     7    1
    17     7     8   ar
    18     8     9   ar
    19     9    10   ar
    20    10    11    1
    21    10    12   ar
    22    12    13   ar
    23     6     2   ar
    24    13     7   ar
    25    26    20    1
    26    16    19    1
    27    11    14    1
    28    11    15    1
@<TRIPOS>MOLECULE
*****
 26 28 0 0 0
SMALL
GASTEIGER

@<TRIPOS>ATOM
      1 C          59.0096   88.5873   11.6826 C.3     1  UNL1        0.0527
      2 C          60.4488   89.0079   11.7260 C.ar    1  UNL1        0.0673
      3 N          61.0546   89.9790   12.6955 N.ar    1  UNL1       -0.2283
      4 C          62.5150   90.1026   12.3762 C.ar    1  UNL1        0.1652
      5 S          62.8118   89.2079   11.2094 S.2     1  UNL1       -0.0517
      6 C          61.5347   88.5313   10.8075 C.ar    1  UNL1        0.0471
      7 C          61.3722   87.5505    9.6844 C.ar    1  UNL1        0.0265
      8 C          62.4542   86.5518    9.3983 C.ar    1  UNL1        0.0049
      9 C          62.2916   85.5709    8.2752 C.ar    1  UNL1        0.0339
     10 C          61.0471   85.5888    7.4381 C.ar    1  UNL1        0.1254
     11 N          60.8846   84.6079    6.3149 N.pl3   1  UNL1       -0.3426
     12 N          59.9651   86.5874    7.7240 N.ar    1  UNL1       -0.2296
     13 C          60.1276   87.5684    8.8473 C.ar    1  UNL1        0.1008
     14 H          61.5948   83.9524    6.1272 H       1  UNL1        0.1437
     15 H          60.0678   84.6196    5.7654 H       1  UNL1        0.1437
     16 N          63.5049   90.9688   13.0972 N.am    1  UNL1       -0.2642
     17 C          64.0139   90.5616   14.4481 C.2     1  UNL1        0.2266
     18 O          63.5330   89.2880   15.0781 O.2     1  UNL1       -0.2748
     19 H          63.8205   91.8046   12.6837 H       1  UNL1        0.1567
     20 C          65.0038   91.4278   15.1691 C.3     1  UNL1        0.0692
     21 C          63.9363   91.3236   16.2178 C.3     1  UNL1        0.0091
     22 C          65.6229   92.2578   16.2543 C.3     1  UNL1        0.0086
     23 C          66.9657   92.8911   16.0404 C.3     1  UNL1        0.0005
     24 C          67.6893   92.6944   14.7413 C.3     1  UNL1        0.0000
     25 C          67.0702   91.8644   13.6561 C.3     1  UNL1        0.0005
     26 C          65.7274   91.2311   13.8700 C.3     1  UNL1        0.0086
@<TRIPOS>BOND
     1     1     2    1
     2     2     3   ar
     3     3     4   ar
     4     4    16    1
     5    16    17   am
     6    17    18    2
     7    17    20    1
     8    20    21    1
     9    20    22    1
    10    22    23    1
    11    23    24    1
    12    24    25    1
    13    25    26    1
    14     4     5   ar
    15     5     6   ar
    16     6     7    1
    17     7     8   ar
    18     8     9   ar
    19     9    10   ar
    20    10    11    1
    21    10    12   ar
    22    12    13   ar
    23     6     2   ar
    24    13     7   ar
    25    26    20    1
    26    16    19    1
    27    11    14    1
    28    11    15    1
@<TRIPOS>MOLECULE
*****
 26 28 0 0 0
SMALL
GASTEIGER

@<TRIPOS>ATOM
      1 C          62.3541   85.6167   17.3710 C.3     1  UNL1        0.0527
      2 C          63.0973   86.2912   16.2561 C.ar    1  UNL1        0.0673
      3 N          63.5343   87.7258   16.2292 N.ar    1  UNL1       -0.2283
      4 C          64.2410   87.9707   14.9290 C.ar    1  UNL1        0.1652
      5 S          64.2408   86.6875   14.1523 S.2     1  UNL1       -0.0517
      6 C          63.5339   85.6494   14.9727 C.ar    1  UNL1        0.0471
      7 C          63.3041   84.2205   14.5785 C.ar    1  UNL1        0.0265
      8 C          64.3375   83.4887   13.7745 C.ar    1  UNL1        0.0049
      9 C          64.1076   82.0597   13.3804 C.ar    1  UNL1        0.0339
     10 C          62.8443   81.3626   13.7903 C.ar    1  UNL1        0.1254
     11 N          62.6145   79.9336   13.3961 N.pl3   1  UNL1       -0.3426
     12 N          61.8109   82.0943   14.5943 N.ar    1  UNL1       -0.2296
     13 C          62.0407   83.5233   14.9885 C.ar    1  UNL1        0.1008
     14 H          63.2928   79.4534   12.8684 H       1  UNL1        0.1437
     15 H          61.7853   79.4761   13.6652 H       1  UNL1        0.1437
     16 N          64.8424   89.2707   14.4836 N.am    1  UNL1       -0.2642
     17 C          64.1443   90.1053   13.4510 C.2     1  UNL1        0.2266
     18 O          62.8449   89.6399   12.8638 O.2     1  UNL1       -0.2748
     19 H          65.6952   89.5762   14.8690 H       1  UNL1        0.1567
     20 C          64.7457   91.4053   13.0056 C.3     1  UNL1        0.0692
     21 C          63.8521   91.1173   11.8358 C.3     1  UNL1        0.0091
     22 C          65.0367   92.6053   12.1540 C.3     1  UNL1        0.0086
     23 C          66.0125   93.6417   12.6269 C.3     1  UNL1        0.0005
     24 C          66.6972   93.4782   13.9514 C.3     1  UNL1        0.0000
     25 C          66.4062   92.2783   14.8031 C.3     1  UNL1        0.0005
     26 C          65.4304   91.2418   14.3302 C.3     1  UNL1        0.0086
@<TRIPOS>BOND
     1     1     2    1
     2     2     3   ar
     3     3     4   ar
     4     4    16    1
     5    16    17   am
     6    17    18    2
     7    17    20    1
     8    20    21    1
     9    20    22    1
    10    22    23    1
    11    23    24    1
    12    24    25    1
    13    25    26    1
    14     4     5   ar
    15     5     6   ar
    16     6     7    1
    17     7     8   ar
    18     8     9   ar
    19     9    10   ar
    20    10    11    1
    21    10    12   ar
    22    12    13   ar
    23     6     2   ar
    24    13     7   ar
    25    26    20    1
    26    16    19    1
    27    11    14    1
    28    11    15    1
@<TRIPOS>MOLECULE
*****
 26 28 0 0 0
SMALL
GASTEIGER

@<TRIPOS>ATOM
      1 C          59.0308   88.4136   11.1832 C.3     1  UNL1        0.0527
      2 C          60.4895   88.7439   11.2985 C.ar    1  UNL1        0.0673
      3 N          61.1025   89.6977   12.2805 N.ar    1  UNL1       -0.2283
      4 C          62.5831   89.7216   12.0410 C.ar    1  UNL1        0.1652
      5 S          62.8851   88.7826   10.9110 S.2     1  UNL1       -0.0517
      6 C          61.5911   88.1783   10.4521 C.ar    1  UNL1        0.0471
      7 C          61.4276   87.1832    9.3417 C.ar    1  UNL1        0.0265
      8 C          62.5547   86.2571    8.9925 C.ar    1  UNL1        0.0049
      9 C          62.3912   85.2620    7.8821 C.ar    1  UNL1        0.0339
     10 C          61.1006   85.1930    7.1209 C.ar    1  UNL1        0.1254
     11 N          60.9371   84.1978    6.0104 N.pl3   1  UNL1       -0.3426
     12 N          59.9734   86.1190    7.4700 N.ar    1  UNL1       -0.2296
     13 C          60.1369   87.1142    8.5805 C.ar    1  UNL1        0.1008
     14 H          61.6769   83.5900    5.7813 H       1  UNL1        0.1437
     15 H          60.0900   84.1524    5.5108 H       1  UNL1        0.1437
     16 N          63.5856   90.5408   12.7986 N.am    1  UNL1       -0.2642
     17 C          64.3774   91.5999   12.0906 C.2     1  UNL1        0.2266
     18 O          64.1666   91.8400   10.6250 O.2     1  UNL1       -0.2748
     19 H          63.7239   90.3832   13.7605 H       1  UNL1        0.1567
     20 C          65.3799   92.4191   12.8482 C.3     1  UNL1        0.0692
     21 C          65.4891   93.0590   11.4960 C.3     1  UNL1        0.0091
     22 C          66.4203   93.4605   13.1361 C.3     1  UNL1        0.0086
     23 C          67.0034   93.5774   14.5132 C.3     1  UNL1        0.0005
     24 C          66.5460   92.6530   15.6023 C.3     1  UNL1        0.0000
     25 C          65.5055   91.6116   15.3144 C.3     1  UNL1        0.0005
     26 C          64.9225   91.4947   13.9373 C.3     1  UNL1        0.0086
@<TRIPOS>BOND
     1     1     2    1
     2     2     3   ar
     3     3     4   ar
     4     4    16    1
     5    16    17   am
     6    17    18    2
     7    17    20    1
     8    20    21    1
     9    20    22    1
    10    22    23    1
    11    23    24    1
    12    24    25    1
    13    25    26    1
    14     4     5   ar
    15     5     6   ar
    16     6     7    1
    17     7     8   ar
    18     8     9   ar
    19     9    10   ar
    20    10    11    1
    21    10    12   ar
    22    12    13   ar
    23     6     2   ar
    24    13     7   ar
    25    26    20    1
    26    16    19    1
    27    11    14    1
    28    11    15    1
@<TRIPOS>MOLECULE
*****
 26 28 0 0 0
SMALL
GASTEIGER

@<TRIPOS>ATOM
      1 C          73.3922   78.8309   14.9416 C.3     1  UNL1        0.0527
      2 C          72.7886   78.6199   13.5847 C.ar    1  UNL1        0.0673
      3 N          72.9955   79.4926   12.3823 N.ar    1  UNL1       -0.2283
      4 C          72.2069   78.9113   11.2465 C.ar    1  UNL1        0.1652
      5 S          71.5126   77.6794   11.7467 S.2     1  UNL1       -0.0517
      6 C          71.8721   77.4993   13.1919 C.ar    1  UNL1        0.0471
      7 C          71.3983   76.3929   14.0870 C.ar    1  UNL1        0.0265
      8 C          72.2641   75.1894   14.3147 C.ar    1  UNL1        0.0049
      9 C          71.7902   74.0830   15.2098 C.ar    1  UNL1        0.0339
     10 C          70.4505   74.1801   15.8773 C.ar    1  UNL1        0.1254
     11 N          69.9766   73.0736   16.7724 N.pl3   1  UNL1       -0.3426
     12 N          69.5846   75.3835   15.6497 N.ar    1  UNL1       -0.2296
     13 C          70.0584   76.4900   14.7545 C.ar    1  UNL1        0.1008
     14 H          70.5449   72.2837   16.9218 H       1  UNL1        0.1437
     15 H          69.0972   73.1372   17.2105 H       1  UNL1        0.1437
     16 N          72.1268   79.4647    9.8546 N.am    1  UNL1       -0.2642
     17 C          72.0578   80.9477    9.6399 C.2     1  UNL1        0.2266
     18 O          72.0690   81.8772   10.8172 O.2     1  UNL1       -0.2748
     19 H          72.1194   78.8546    9.0820 H       1  UNL1        0.1567
     20 C          71.9776   81.5011    8.2481 C.3     1  UNL1        0.0692
     21 C          72.0736   82.7771    9.0307 C.3     1  UNL1        0.0091
     22 C          71.9308   82.4977    7.1280 C.3     1  UNL1        0.0086
     23 C          71.8158   82.0261    5.7088 C.3     1  UNL1        0.0005
     24 C          71.7477   80.5578    5.4096 C.3     1  UNL1        0.0000
     25 C          71.7945   79.5612    6.5296 C.3     1  UNL1        0.0005
     26 C          71.9095   80.0329    7.9489 C.3     1  UNL1        0.0086
@<TRIPOS>BOND
     1     1     2    1
     2     2     3   ar
     3     3     4   ar
     4     4    16    1
     5    16    17   am
     6    17    18    2
     7    17    20    1
     8    20    21    1
     9    20    22    1
    10    22    23    1
    11    23    24    1
    12    24    25    1
    13    25    26    1
    14     4     5   ar
    15     5     6   ar
    16     6     7    1
    17     7     8   ar
    18     8     9   ar
    19     9    10   ar
    20    10    11    1
    21    10    12   ar
    22    12    13   ar
    23     6     2   ar
    24    13     7   ar
    25    26    20    1
    26    16    19    1
    27    11    14    1
    28    11    15    1
@<TRIPOS>MOLECULE
*****
 26 28 0 0 0
SMALL
GASTEIGER

@<TRIPOS>ATOM
      1 C          55.2907   94.2323   -1.5837 C.3     1  UNL1        0.0527
      2 C          56.7571   93.9532   -1.7316 C.ar    1  UNL1        0.0673
      3 N          57.8402   94.4119   -0.8007 N.ar    1  UNL1       -0.2283
      4 C          59.1503   93.9087   -1.3301 C.ar    1  UNL1        0.1652
      5 S          58.8770   93.1389   -2.5882 S.2     1  UNL1       -0.0517
      6 C          57.3978   93.1665   -2.8363 C.ar    1  UNL1        0.0471
      7 C          56.6848   92.5207   -3.9871 C.ar    1  UNL1        0.0265
      8 C          56.6508   93.1992   -5.3245 C.ar    1  UNL1        0.0049
      9 C          55.9378   92.5533   -6.4753 C.ar    1  UNL1        0.0339
     10 C          55.2587   91.2289   -6.2888 C.ar    1  UNL1        0.1254
     11 N          54.5456   90.5830   -7.4397 N.pl3   1  UNL1       -0.3426
     12 N          55.2926   90.5504   -4.9515 N.ar    1  UNL1       -0.2296
     13 C          56.0057   91.1962   -3.8006 C.ar    1  UNL1        0.1008
     14 H          54.5234   91.0284   -8.3174 H       1  UNL1        0.1437
     15 H          54.0999   89.7138   -7.3173 H       1  UNL1        0.1437
     16 N          60.4973   94.1354   -0.7102 N.am    1  UNL1       -0.2642
     17 C          61.2325   92.9927   -0.0748 C.2     1  UNL1        0.2266
     18 O          60.6206   91.6232   -0.0594 O.2     1  UNL1       -0.2748
     19 H          60.8988   95.0342   -0.7204 H       1  UNL1        0.1567
     20 C          62.5794   93.2194    0.5451 C.3     1  UNL1        0.0692
     21 C          61.9509   92.3540    1.5968 C.3     1  UNL1        0.0091
     22 C          63.7081   93.1455    1.5302 C.3     1  UNL1        0.0086
     23 C          64.9975   93.8583    1.2483 C.3     1  UNL1        0.0005
     24 C          65.1581   94.6450   -0.0188 C.3     1  UNL1        0.0000
     25 C          64.0294   94.7188   -1.0039 C.3     1  UNL1        0.0005
     26 C          62.7401   94.0060   -0.7220 C.3     1  UNL1        0.0086
@<TRIPOS>BOND
     1     1     2    1
     2     2     3   ar
     3     3     4   ar
     4     4    16    1
     5    16    17   am
     6    17    18    2
     7    17    20    1
     8    20    21    1
     9    20    22    1
    10    22    23    1
    11    23    24    1
    12    24    25    1
    13    25    26    1
    14     4     5   ar
    15     5     6   ar
    16     6     7    1
    17     7     8   ar
    18     8     9   ar
    19     9    10   ar
    20    10    11    1
    21    10    12   ar
    22    12    13   ar
    23     6     2   ar
    24    13     7   ar
    25    26    20    1
    26    16    19    1
    27    11    14    1
    28    11    15    1
@<TRIPOS>MOLECULE
*****
 26 28 0 0 0
SMALL
GASTEIGER

@<TRIPOS>ATOM
      1 C          55.2140   94.0551   -1.8552 C.3     1  UNL1        0.0527
      2 C          56.6422   93.6901   -2.1329 C.ar    1  UNL1        0.0673
      3 N          57.8527   94.3959   -1.5977 N.ar    1  UNL1       -0.2283
      4 C          59.0692   93.6972   -2.1286 C.ar    1  UNL1        0.1652
      5 S          58.6106   92.5596   -2.9920 S.2     1  UNL1       -0.0517
      6 C          57.1105   92.5552   -2.9947 C.ar    1  UNL1        0.0471
      7 C          56.2331   91.5860   -3.7300 C.ar    1  UNL1        0.0265
      8 C          55.6058   90.4372   -2.9974 C.ar    1  UNL1        0.0049
      9 C          54.7283   89.4681   -3.7328 C.ar    1  UNL1        0.0339
     10 C          54.4782   89.6477   -5.2008 C.ar    1  UNL1        0.1254
     11 N          53.6007   88.6785   -5.9361 N.pl3   1  UNL1       -0.3426
     12 N          55.1054   90.7964   -5.9334 N.ar    1  UNL1       -0.2296
     13 C          55.9829   91.7657   -5.1981 C.ar    1  UNL1        0.1008
     14 H          53.1890   87.9245   -5.4552 H       1  UNL1        0.1437
     15 H          53.4365   88.7964   -6.8997 H       1  UNL1        0.1437
     16 N          60.4942   94.0706   -1.8458 N.am    1  UNL1       -0.2642
     17 C          61.3024   93.2633   -0.8737 C.2     1  UNL1        0.2266
     18 O          60.6855   92.0824   -0.1843 O.2     1  UNL1       -0.2748
     19 H          60.8990   94.8456   -2.2982 H       1  UNL1        0.1567
     20 C          62.7274   93.6367   -0.5908 C.3     1  UNL1        0.0692
     21 C          62.6896   93.8576   -2.0740 C.3     1  UNL1        0.0091
     22 C          64.1392   94.0868   -0.8231 C.3     1  UNL1        0.0086
     23 C          65.0939   94.1863    0.3296 C.3     1  UNL1        0.0005
     24 C          64.6366   93.8356    1.7145 C.3     1  UNL1        0.0000
     25 C          63.2248   93.3855    1.9468 C.3     1  UNL1        0.0005
     26 C          62.2701   93.2860    0.7941 C.3     1  UNL1        0.0086
@<TRIPOS>BOND
     1     1     2    1
     2     2     3   ar
     3     3     4   ar
     4     4    16    1
     5    16    17   am
     6    17    18    2
     7    17    20    1
     8    20    21    1
     9    20    22    1
    10    22    23    1
    11    23    24    1
    12    24    25    1
    13    25    26    1
    14     4     5   ar
    15     5     6   ar
    16     6     7    1
    17     7     8   ar
    18     8     9   ar
    19     9    10   ar
    20    10    11    1
    21    10    12   ar
    22    12    13   ar
    23     6     2   ar
    24    13     7   ar
    25    26    20    1
    26    16    19    1
    27    11    14    1
    28    11    15    1
