@<TRIPOS>MOLECULE
*****
 28 32 0 0 0
SMALL
GASTEIGER

@<TRIPOS>ATOM
      1 O          62.2974   90.9752   11.4842 O.2     1  UNL1       -0.2734
      2 C          63.1226   90.1495   12.4261 C.2     1  UNL1        0.2403
      3 N          63.0702   88.6522   12.3539 N.am    1  UNL1       -0.2749
      4 C          63.8954   87.8265   13.2958 C.3     1  UNL1        0.1149
      5 C          63.8429   86.3292   13.2236 C.3     1  UNL1        0.1121
      6 N          62.9652   85.6575   12.2095 N.pl3   1  UNL1       -0.3071
      7 C          62.1399   86.4832   11.2676 C.3     1  UNL1        0.1121
      8 C          62.1924   87.9806   11.3398 C.3     1  UNL1        0.1149
      9 C          64.0004   90.8212   13.4402 C.3     1  UNL1        0.1363
     10 C          65.4227   91.1532   13.0986 C.3     1  UNL1        0.0511
     11 C          66.3004   91.8249   14.1128 C.ar    1  UNL1       -0.0230
     12 C          67.7228   92.1569   13.7712 C.ar    1  UNL1       -0.0045
     13 C          68.6004   92.8286   14.7853 C.ar    1  UNL1       -0.0003
     14 C          68.0558   93.1683   16.1410 C.ar    1  UNL1       -0.0003
     15 C          66.6334   92.8363   16.4826 C.ar    1  UNL1       -0.0032
     16 C          65.7558   92.1646   15.4685 C.ar    1  UNL1       -0.0103
     17 C          64.3334   91.8326   15.8101 C.3     1  UNL1        0.0956
     18 N          63.4557   91.1609   14.7959 N.3     1  UNL1       -0.2873
     19 H          62.6553   91.7752   14.6463 H       1  UNL1        0.1240
     20 C          62.9127   84.1602   12.1373 C.2     1  UNL1        0.0295
     21 C          63.4207   83.4498   10.9177 C.2     1  UNL1        0.0120
     22 C          63.3683   81.9525   10.8455 C.2     1  UNL1        0.0216
     23 C          62.8078   81.1655   11.9930 C.2     1  UNL1        0.1008
     24 N          62.6282   79.6916   12.2065 N.2     1  UNL1       -0.1482
     25 N          62.0092   79.4912   13.5580 N.2     1  UNL1       -0.1467
     26 C          61.8063   80.8410   14.1798 C.2     1  UNL1        0.1198
     27 C          62.2998   81.8758   13.2125 C.2     1  UNL1        0.0238
     28 C          62.3523   83.3732   13.2847 C.3     1  UNL1        0.0705
@<TRIPOS>BOND
     1     1     2    2
     2     9     2    1
     3     9    10    1
     4    10    11    1
     5    11    12   ar
     6    12    13   ar
     7    13    14   ar
     8    14    15   ar
     9    15    16   ar
    10    16    17    1
    11    17    18    1
    12     2     3   am
    13     3     4    1
    14     4     5    1
    15     5     6    1
    16     6    20    1
    17    20    21    2
    18    21    22    1
    19    22    23    2
    20    23    24    1
    21    24    25    2
    22    25    26    1
    23    26    27    2
    24    27    28    1
    25     6     7    1
    26     7     8    1
    27    18     9    1
    28     8     3    1
    29    16    11   ar
    30    28    20    1
    31    27    23    1
    32    18    19    1
@<TRIPOS>MOLECULE
*****
 28 32 0 0 0
SMALL
GASTEIGER

@<TRIPOS>ATOM
      1 O          62.1088   86.0684   17.7453 O.2     1  UNL1       -0.2734
      2 C          62.8977   86.0663   16.4696 C.2     1  UNL1        0.2403
      3 N          63.4472   87.3515   15.9254 N.am    1  UNL1       -0.2749
      4 C          64.2361   87.3494   14.6496 C.3     1  UNL1        0.1149
      5 C          64.7856   88.6346   14.1055 C.3     1  UNL1        0.1121
      6 N          64.5463   89.9221   14.8371 N.pl3   1  UNL1       -0.3071
      7 C          63.7574   89.9242   16.1129 C.3     1  UNL1        0.1121
      8 C          63.2078   88.6389   16.6570 C.3     1  UNL1        0.1149
      9 C          63.1371   84.7788   15.7379 C.3     1  UNL1        0.1363
     10 C          61.9837   83.8788   15.4066 C.3     1  UNL1        0.0511
     11 C          62.2231   82.5913   14.6750 C.ar    1  UNL1       -0.0230
     12 C          61.0698   81.6913   14.3437 C.ar    1  UNL1       -0.0045
     13 C          61.3092   80.4039   13.6121 C.ar    1  UNL1       -0.0003
     14 C          62.7019   80.0166   13.2118 C.ar    1  UNL1       -0.0003
     15 C          63.8553   80.9166   13.5431 C.ar    1  UNL1       -0.0032
     16 C          63.6159   82.2039   14.2747 C.ar    1  UNL1       -0.0103
     17 C          64.7692   83.1040   14.6060 C.3     1  UNL1        0.0956
     18 N          64.5298   84.3914   15.3376 N.3     1  UNL1       -0.2873
     19 H          64.8835   85.1393   14.7410 H       1  UNL1        0.1240
     20 C          65.0958   91.2073   14.2930 C.2     1  UNL1        0.0295
     21 C          65.8543   92.1387   15.1914 C.2     1  UNL1        0.0120
     22 C          66.4038   93.4239   14.6472 C.2     1  UNL1        0.0216
     23 C          66.1948   93.7778   13.2046 C.2     1  UNL1        0.1008
     24 N          66.6162   94.9657   12.3913 N.2     1  UNL1       -0.1482
     25 N          66.1181   94.7684   10.9903 N.2     1  UNL1       -0.1467
     26 C          65.3889   93.4587   10.9376 C.2     1  UNL1        0.1198
     27 C          65.4363   92.8464   12.3062 C.2     1  UNL1        0.0238
     28 C          64.8868   91.5611   12.8504 C.3     1  UNL1        0.0705
@<TRIPOS>BOND
     1     1     2    2
     2     9     2    1
     3     9    10    1
     4    10    11    1
     5    11    12   ar
     6    12    13   ar
     7    13    14   ar
     8    14    15   ar
     9    15    16   ar
    10    16    17    1
    11    17    18    1
    12     2     3   am
    13     3     4    1
    14     4     5    1
    15     5     6    1
    16     6    20    1
    17    20    21    2
    18    21    22    1
    19    22    23    2
    20    23    24    1
    21    24    25    2
    22    25    26    1
    23    26    27    2
    24    27    28    1
    25     6     7    1
    26     7     8    1
    27    18     9    1
    28     8     3    1
    29    16    11   ar
    30    28    20    1
    31    27    23    1
    32    18    19    1
@<TRIPOS>MOLECULE
*****
 28 32 0 0 0
SMALL
GASTEIGER

@<TRIPOS>ATOM
      1 O          61.5297   90.3322    9.6824 O.2     1  UNL1       -0.2734
      2 C          62.5066   89.9236   10.7449 C.2     1  UNL1        0.2403
      3 N          62.4977   88.5193   11.2719 N.am    1  UNL1       -0.2749
      4 C          63.4745   88.1108   12.3344 C.3     1  UNL1        0.1149
      5 C          63.4656   86.7065   12.8615 C.3     1  UNL1        0.1121
      6 N          62.4799   85.7106   12.3260 N.pl3   1  UNL1       -0.3071
      7 C          61.5030   86.1192   11.2635 C.3     1  UNL1        0.1121
      8 C          61.5119   87.5236   10.7365 C.3     1  UNL1        0.1149
      9 C          63.4923   90.9195   11.2804 C.3     1  UNL1        0.1363
     10 C          63.9327   90.8434   12.7122 C.3     1  UNL1        0.0511
     11 C          64.9184   91.8393   13.2477 C.ar    1  UNL1       -0.0230
     12 C          65.3587   91.7632   14.6795 C.ar    1  UNL1       -0.0045
     13 C          66.3445   92.7591   15.2149 C.ar    1  UNL1       -0.0003
     14 C          66.8899   93.8309   14.3184 C.ar    1  UNL1       -0.0003
     15 C          66.4495   93.9069   12.8866 C.ar    1  UNL1       -0.0032
     16 C          65.4638   92.9111   12.3512 C.ar    1  UNL1       -0.0103
     17 C          65.0234   92.9871   10.9193 C.3     1  UNL1        0.0956
     18 N          64.0377   91.9913   10.3839 N.3     1  UNL1       -0.2873
     19 H          64.4917   91.5186    9.6023 H       1  UNL1        0.1240
     20 C          62.4710   84.3063   12.8530 C.2     1  UNL1        0.0295
     21 C          62.3153   84.0583   14.3242 C.2     1  UNL1        0.0120
     22 C          62.3064   82.6540   14.8512 C.2     1  UNL1        0.0216
     23 C          62.4532   81.4976   13.9071 C.2     1  UNL1        0.1008
     24 N          62.4809   80.0149   14.1326 N.2     1  UNL1       -0.1482
     25 N          62.6537   79.3467   12.8010 N.2     1  UNL1       -0.1467
     26 C          62.7328   80.4162   11.7523 C.2     1  UNL1        0.1198
     27 C          62.6090   81.7456   12.4359 C.2     1  UNL1        0.0238
     28 C          62.6178   83.1500   11.9089 C.3     1  UNL1        0.0705
@<TRIPOS>BOND
     1     1     2    2
     2     9     2    1
     3     9    10    1
     4    10    11    1
     5    11    12   ar
     6    12    13   ar
     7    13    14   ar
     8    14    15   ar
     9    15    16   ar
    10    16    17    1
    11    17    18    1
    12     2     3   am
    13     3     4    1
    14     4     5    1
    15     5     6    1
    16     6    20    1
    17    20    21    2
    18    21    22    1
    19    22    23    2
    20    23    24    1
    21    24    25    2
    22    25    26    1
    23    26    27    2
    24    27    28    1
    25     6     7    1
    26     7     8    1
    27    18     9    1
    28     8     3    1
    29    16    11   ar
    30    28    20    1
    31    27    23    1
    32    18    19    1
@<TRIPOS>MOLECULE
*****
 28 32 0 0 0
SMALL
GASTEIGER

@<TRIPOS>ATOM
      1 O          62.2132   85.4793   17.4089 O.2     1  UNL1       -0.2734
      2 C          62.7565   85.6108   16.0169 C.2     1  UNL1        0.2403
      3 N          63.3142   86.9228   15.5503 N.am    1  UNL1       -0.2749
      4 C          63.8575   87.0543   14.1584 C.3     1  UNL1        0.1149
      5 C          64.4151   88.3662   13.6918 C.3     1  UNL1        0.1121
      6 N          64.4295   89.5467   14.6171 N.pl3   1  UNL1       -0.3071
      7 C          63.8862   89.4152   16.0091 C.3     1  UNL1        0.1121
      8 C          63.3285   88.1032   16.4757 C.3     1  UNL1        0.1149
      9 C          62.7421   84.4303   15.0916 C.3     1  UNL1        0.1363
     10 C          63.3042   84.5561   13.7066 C.3     1  UNL1        0.0511
     11 C          63.2898   83.3755   12.7812 C.ar    1  UNL1       -0.0230
     12 C          63.8519   83.5013   11.3963 C.ar    1  UNL1       -0.0045
     13 C          63.8375   82.3208   10.4710 C.ar    1  UNL1       -0.0003
     14 C          63.2610   81.0145   10.9307 C.ar    1  UNL1       -0.0003
     15 C          62.6989   80.8888   12.3157 C.ar    1  UNL1       -0.0032
     16 C          62.7133   82.0693   13.2409 C.ar    1  UNL1       -0.0103
     17 C          62.1512   81.9435   14.6260 C.3     1  UNL1        0.0956
     18 N          62.1656   83.1240   15.5513 N.3     1  UNL1       -0.2873
     19 H          62.6935   82.8438   16.3779 H       1  UNL1        0.1240
     20 C          64.9872   90.8587   14.1505 C.2     1  UNL1        0.0295
     21 C          65.7572   91.7269   15.1009 C.2     1  UNL1        0.0120
     22 C          66.3149   93.0388   14.6343 C.2     1  UNL1        0.0216
     23 C          66.1025   93.4826   13.2173 C.2     1  UNL1        0.1008
     24 N          66.5301   94.7150   12.4766 N.2     1  UNL1       -0.1482
     25 N          66.0243   94.6084   11.0686 N.2     1  UNL1       -0.1467
     26 C          65.2842   93.3102   10.9389 C.2     1  UNL1        0.1198
     27 C          65.3325   92.6144   12.2669 C.2     1  UNL1        0.0238
     28 C          64.7748   91.3024   12.7335 C.3     1  UNL1        0.0705
@<TRIPOS>BOND
     1     1     2    2
     2     9     2    1
     3     9    10    1
     4    10    11    1
     5    11    12   ar
     6    12    13   ar
     7    13    14   ar
     8    14    15   ar
     9    15    16   ar
    10    16    17    1
    11    17    18    1
    12     2     3   am
    13     3     4    1
    14     4     5    1
    15     5     6    1
    16     6    20    1
    17    20    21    2
    18    21    22    1
    19    22    23    2
    20    23    24    1
    21    24    25    2
    22    25    26    1
    23    26    27    2
    24    27    28    1
    25     6     7    1
    26     7     8    1
    27    18     9    1
    28     8     3    1
    29    16    11   ar
    30    28    20    1
    31    27    23    1
    32    18    19    1
@<TRIPOS>MOLECULE
*****
 28 32 0 0 0
SMALL
GASTEIGER

@<TRIPOS>ATOM
      1 O          63.3334   90.5019   17.2503 O.2     1  UNL1       -0.2734
      2 C          63.8841   90.0500   15.9303 C.2     1  UNL1        0.2403
      3 N          63.7794   88.6088   15.5277 N.am    1  UNL1       -0.2749
      4 C          64.3302   88.1569   14.2077 C.3     1  UNL1        0.1149
      5 C          64.2255   86.7158   13.8051 C.3     1  UNL1        0.1121
      6 N          63.5701   85.7264   14.7227 N.pl3   1  UNL1       -0.3071
      7 C          63.0194   86.1783   16.0427 C.3     1  UNL1        0.1121
      8 C          63.1241   87.6196   16.4452 C.3     1  UNL1        0.1149
      9 C          64.5395   91.0393   15.0127 C.3     1  UNL1        0.1363
     10 C          64.2316   91.0191   13.5448 C.3     1  UNL1        0.0511
     11 C          64.8870   92.0084   12.6273 C.ar    1  UNL1       -0.0230
     12 C          64.5792   91.9881   11.1594 C.ar    1  UNL1       -0.0045
     13 C          65.2346   92.9774   10.2420 C.ar    1  UNL1       -0.0003
     14 C          66.1978   93.9870   10.7925 C.ar    1  UNL1       -0.0003
     15 C          66.5056   94.0072   12.2604 C.ar    1  UNL1       -0.0032
     16 C          65.8502   93.0179   13.1778 C.ar    1  UNL1       -0.0103
     17 C          66.1581   93.0381   14.6458 C.3     1  UNL1        0.0956
     18 N          65.5027   92.0488   15.5632 N.3     1  UNL1       -0.2873
     19 H          64.9949   92.5887   16.2640 H       1  UNL1        0.1240
     20 C          63.4655   84.2853   14.3201 C.2     1  UNL1        0.0295
     21 C          64.6337   83.5999   13.6755 C.2     1  UNL1        0.0120
     22 C          64.5290   82.1587   13.2730 C.2     1  UNL1        0.0216
     23 C          63.2561   81.4029   13.5151 C.2     1  UNL1        0.1008
     24 N          62.8607   79.9847   13.2278 N.2     1  UNL1       -0.1482
     25 N          61.4482   79.7937   13.6948 N.2     1  UNL1       -0.1467
     26 C          60.9705   81.0937   14.2707 C.2     1  UNL1        0.1198
     27 C          62.0879   82.0883   14.1597 C.2     1  UNL1        0.0238
     28 C          62.1926   83.5295   14.5622 C.3     1  UNL1        0.0705
@<TRIPOS>BOND
     1     1     2    2
     2     9     2    1
     3     9    10    1
     4    10    11    1
     5    11    12   ar
     6    12    13   ar
     7    13    14   ar
     8    14    15   ar
     9    15    16   ar
    10    16    17    1
    11    17    18    1
    12     2     3   am
    13     3     4    1
    14     4     5    1
    15     5     6    1
    16     6    20    1
    17    20    21    2
    18    21    22    1
    19    22    23    2
    20    23    24    1
    21    24    25    2
    22    25    26    1
    23    26    27    2
    24    27    28    1
    25     6     7    1
    26     7     8    1
    27    18     9    1
    28     8     3    1
    29    16    11   ar
    30    28    20    1
    31    27    23    1
    32    18    19    1
@<TRIPOS>MOLECULE
*****
 28 32 0 0 0
SMALL
GASTEIGER

@<TRIPOS>ATOM
      1 O          63.4744   88.4701   16.9730 O.2     1  UNL1       -0.2734
      2 C          63.6543   88.2182   15.5053 C.2     1  UNL1        0.2403
      3 N          63.4855   86.8328   14.9558 N.am    1  UNL1       -0.2749
      4 C          63.6654   86.5809   13.4881 C.3     1  UNL1        0.1149
      5 C          63.4966   85.1954   12.9386 C.3     1  UNL1        0.1121
      6 N          63.1479   84.0617   13.8569 N.pl3   1  UNL1       -0.3071
      7 C          62.9680   84.3136   15.3247 C.3     1  UNL1        0.1121
      8 C          63.1368   85.6991   15.8741 C.3     1  UNL1        0.1149
      9 C          64.0030   89.3519   14.5870 C.3     1  UNL1        0.1363
     10 C          65.0832   90.3204   14.9677 C.3     1  UNL1        0.0511
     11 C          65.4319   91.4541   14.0494 C.ar    1  UNL1       -0.0230
     12 C          66.5122   92.4226   14.4301 C.ar    1  UNL1       -0.0045
     13 C          66.8608   93.5562   13.5119 C.ar    1  UNL1       -0.0003
     14 C          66.1292   93.7214   12.2129 C.ar    1  UNL1       -0.0003
     15 C          65.0489   92.7529   11.8321 C.ar    1  UNL1       -0.0032
     16 C          64.7003   91.6193   12.7504 C.ar    1  UNL1       -0.0103
     17 C          63.6200   90.6507   12.3697 C.3     1  UNL1        0.0956
     18 N          63.2713   89.5171   13.2880 N.3     1  UNL1       -0.2873
     19 H          63.4118   88.6561   12.7594 H       1  UNL1        0.1240
     20 C          62.9791   82.6763   13.3075 C.2     1  UNL1        0.0295
     21 C          62.6031   81.5477   14.2212 C.2     1  UNL1        0.0120
     22 C          62.4343   80.1622   13.6718 C.2     1  UNL1        0.0216
     23 C          62.6415   79.9053   12.2085 C.2     1  UNL1        0.1008
     24 N          62.5464   78.6547   11.3857 N.2     1  UNL1       -0.1482
     25 N          62.8636   79.0104    9.9635 N.2     1  UNL1       -0.1467
     26 C          63.1548   80.4807    9.9072 C.2     1  UNL1        0.1198
     27 C          63.0175   81.0338   11.2948 C.2     1  UNL1        0.0238
     28 C          63.1863   82.4194   11.8443 C.3     1  UNL1        0.0705
@<TRIPOS>BOND
     1     1     2    2
     2     9     2    1
     3     9    10    1
     4    10    11    1
     5    11    12   ar
     6    12    13   ar
     7    13    14   ar
     8    14    15   ar
     9    15    16   ar
    10    16    17    1
    11    17    18    1
    12     2     3   am
    13     3     4    1
    14     4     5    1
    15     5     6    1
    16     6    20    1
    17    20    21    2
    18    21    22    1
    19    22    23    2
    20    23    24    1
    21    24    25    2
    22    25    26    1
    23    26    27    2
    24    27    28    1
    25     6     7    1
    26     7     8    1
    27    18     9    1
    28     8     3    1
    29    16    11   ar
    30    28    20    1
    31    27    23    1
    32    18    19    1
@<TRIPOS>MOLECULE
*****
 28 32 0 0 0
SMALL
GASTEIGER

@<TRIPOS>ATOM
      1 O          61.8593   89.6839   10.3387 O.2     1  UNL1       -0.2734
      2 C          62.6276   89.0112   11.4375 C.2     1  UNL1        0.2403
      3 N          62.6152   87.5159   11.5546 N.am    1  UNL1       -0.2749
      4 C          63.3835   86.8432   12.6534 C.3     1  UNL1        0.1149
      5 C          63.3711   85.3479   12.7705 C.3     1  UNL1        0.1121
      6 N          62.5904   84.5251   11.7888 N.pl3   1  UNL1       -0.3071
      7 C          61.8221   85.1978   10.6900 C.3     1  UNL1        0.1121
      8 C          61.8345   86.6932   10.5729 C.3     1  UNL1        0.1149
      9 C          63.4083   89.8340   12.4191 C.3     1  UNL1        0.1363
     10 C          64.2146   91.0054   11.9421 C.3     1  UNL1        0.0511
     11 C          64.9952   91.8282   12.9238 C.ar    1  UNL1       -0.0230
     12 C          65.8015   92.9997   12.4468 C.ar    1  UNL1       -0.0045
     13 C          66.5822   93.8224   13.4285 C.ar    1  UNL1       -0.0003
     14 C          66.5565   93.4736   14.8872 C.ar    1  UNL1       -0.0003
     15 C          65.7502   92.3022   15.3642 C.ar    1  UNL1       -0.0032
     16 C          64.9696   91.4795   14.3825 C.ar    1  UNL1       -0.0103
     17 C          64.1632   90.3080   14.8595 C.3     1  UNL1        0.0956
     18 N          63.3826   89.4853   13.8778 N.3     1  UNL1       -0.2873
     19 H          62.4068   89.5228   14.1724 H       1  UNL1        0.1240
     20 C          62.5780   83.0298   11.9059 C.2     1  UNL1        0.0295
     21 C          62.3186   82.3837   13.2346 C.2     1  UNL1        0.0120
     22 C          62.3062   80.8883   13.3517 C.2     1  UNL1        0.0216
     23 C          62.5532   80.0390   12.1401 C.2     1  UNL1        0.1008
     24 N          62.6019   78.5519   11.9497 N.2     1  UNL1       -0.1482
     25 N          62.8913   78.2791   10.5035 N.2     1  UNL1       -0.1467
     26 C          63.0215   79.5974    9.8000 C.2     1  UNL1        0.1198
     27 C          62.8126   80.6852   10.8115 C.2     1  UNL1        0.0238
     28 C          62.8250   82.1806   10.6944 C.3     1  UNL1        0.0705
@<TRIPOS>BOND
     1     1     2    2
     2     9     2    1
     3     9    10    1
     4    10    11    1
     5    11    12   ar
     6    12    13   ar
     7    13    14   ar
     8    14    15   ar
     9    15    16   ar
    10    16    17    1
    11    17    18    1
    12     2     3   am
    13     3     4    1
    14     4     5    1
    15     5     6    1
    16     6    20    1
    17    20    21    2
    18    21    22    1
    19    22    23    2
    20    23    24    1
    21    24    25    2
    22    25    26    1
    23    26    27    2
    24    27    28    1
    25     6     7    1
    26     7     8    1
    27    18     9    1
    28     8     3    1
    29    16    11   ar
    30    28    20    1
    31    27    23    1
    32    18    19    1
