@<TRIPOS>MOLECULE
*****
 36 40 0 0 0
SMALL
GASTEIGER

@<TRIPOS>ATOM
      1 N          65.2676   92.3161   12.1136 N.3     1  UNL1       -0.2641
      2 C          66.3537   92.6622   11.1386 C.3     1  UNL1        0.0981
      3 C          67.3816   91.6355   10.7655 C.3     1  UNL1        0.0224
      4 C          68.4677   91.9816    9.7905 C.3     1  UNL1        0.0065
      5 C          68.5259   93.3542    9.1886 C.3     1  UNL1        0.0277
      6 C          67.4979   94.3809    9.5617 C.ar    1  UNL1       -0.0073
      7 C          67.5561   95.7537    8.9598 C.ar    1  UNL1       -0.0015
      8 C          66.5281   96.7803    9.3330 C.ar    1  UNL1        0.0203
      9 C          65.4420   96.4343   10.3080 C.ar    1  UNL1        0.0985
     10 N          65.3838   95.0616   10.9098 N.ar    1  UNL1       -0.2471
     11 C          66.4118   94.0349   10.5367 C.ar    1  UNL1        0.0695
     12 C          63.8790   92.0348   11.6209 C.3     1  UNL1        0.0989
     13 C          62.6137   89.7689   11.4983 C.2     1  UNL1       -0.0122
     14 C          63.5827   90.7494   10.9068 C.2     1  UNL1       -0.0120
     15 C          62.3174   88.4836   10.7842 C.3     1  UNL1        0.0953
     16 N          62.1600   87.2116   11.5636 N.3     1  UNL1       -0.2900
     17 H          61.3298   87.3237   12.1455 H       1  UNL1        0.1239
     18 C          62.0107   85.9043   10.8434 C.3     1  UNL1        0.0974
     19 C          62.7589   84.6951   11.3211 C.ar    1  UNL1        0.0128
     20 C          63.5071   83.8407   10.3413 C.ar    1  UNL1        0.0002
     21 C          64.2552   82.6315   10.8190 C.ar    1  UNL1        0.0204
     22 C          64.2551   82.2769   12.2765 C.ar    1  UNL1        0.0989
     23 N          63.5069   83.1313   13.2563 N.ar    1  UNL1       -0.2426
     24 C          62.7587   84.3405   12.7786 C.ar    1  UNL1        0.0959
     25 C          65.5700   92.2514   13.5813 C.3     1  UNL1        0.0888
     26 C          64.8865   91.2319   14.4437 C.3     1  UNL1        0.0748
     27 C          65.0681   89.7696   14.1633 C.3     1  UNL1        0.0432
     28 C          64.3846   88.7500   15.0257 C.ar    1  UNL1       -0.0234
     29 C          64.5662   87.2877   14.7453 C.ar    1  UNL1       -0.0045
     30 C          63.8828   86.2683   15.6076 C.ar    1  UNL1       -0.0003
     31 C          63.0179   86.7112   16.7503 C.ar    1  UNL1       -0.0003
     32 C          62.8364   88.1735   17.0307 C.ar    1  UNL1       -0.0032
     33 C          63.5197   89.1929   16.1684 C.ar    1  UNL1       -0.0103
     34 C          63.3383   90.6553   16.4488 C.3     1  UNL1        0.0953
     35 N          64.0216   91.6747   15.5864 N.3     1  UNL1       -0.2934
     36 H          64.6115   92.2339   16.2027 H       1  UNL1        0.1236
@<TRIPOS>BOND
     1    13    14    2
     2    14    12    1
     3    12     1    1
     4     1    25    1
     5    26    25    1
     6    26    27    1
     7    27    28    1
     8    28    29   ar
     9    29    30   ar
    10    30    31   ar
    11    31    32   ar
    12    32    33   ar
    13    33    34    1
    14    34    35    1
    15     2     1    1
    16     2     3    1
    17     3     4    1
    18     4     5    1
    19     5     6    1
    20     6     7   ar
    21     7     8   ar
    22     8     9   ar
    23     9    10   ar
    24    10    11   ar
    25    13    15    1
    26    15    16    1
    27    16    18    1
    28    18    19    1
    29    19    20   ar
    30    20    21   ar
    31    21    22   ar
    32    22    23   ar
    33    23    24   ar
    34    35    26    1
    35    11     2    1
    36    24    19   ar
    37    33    28   ar
    38    11     6   ar
    39    35    36    1
    40    16    17    1
@<TRIPOS>MOLECULE
*****
 36 40 0 0 0
SMALL
GASTEIGER

@<TRIPOS>ATOM
      1 N          63.5209   88.8504   14.0943 N.3     1  UNL1       -0.2641
      2 C          63.3782   89.5816   12.7924 C.3     1  UNL1        0.0981
      3 C          64.1583   90.8396   12.5494 C.3     1  UNL1        0.0224
      4 C          64.0156   91.5708   11.2475 C.3     1  UNL1        0.0065
      5 C          63.0930   91.0441   10.1886 C.3     1  UNL1        0.0277
      6 C          62.3130   89.7862   10.4317 C.ar    1  UNL1       -0.0073
      7 C          61.3902   89.2594    9.3727 C.ar    1  UNL1       -0.0015
      8 C          60.6102   88.0015    9.6158 C.ar    1  UNL1        0.0203
      9 C          60.7529   87.2702   10.9177 C.ar    1  UNL1        0.0985
     10 N          61.6755   87.7969   11.9765 N.ar    1  UNL1       -0.2471
     11 C          62.4556   89.0549   11.7335 C.ar    1  UNL1        0.0695
     12 C          62.7749   89.3242   15.3063 C.3     1  UNL1        0.0989
     13 C          64.2496   91.3882   15.8676 C.2     1  UNL1       -0.0122
     14 C          63.4618   90.1937   16.3174 C.2     1  UNL1       -0.0120
     15 C          64.9365   92.2577   16.8787 C.3     1  UNL1        0.0953
     16 N          66.1839   93.0018   16.5041 N.3     1  UNL1       -0.2900
     17 H          66.6811   93.1990   17.3726 H       1  UNL1        0.1239
     18 C          67.1769   92.3782   15.5687 C.3     1  UNL1        0.0974
     19 C          67.1390   92.7081   14.1058 C.ar    1  UNL1        0.0128
     20 C          66.3497   93.8889   13.6235 C.ar    1  UNL1        0.0002
     21 C          66.3119   94.2188   12.1608 C.ar    1  UNL1        0.0204
     22 C          67.0633   93.3678   11.1803 C.ar    1  UNL1        0.0989
     23 N          67.8525   92.1870   11.6626 N.ar    1  UNL1       -0.2426
     24 C          67.8904   91.8571   13.1254 C.ar    1  UNL1        0.0959
     25 C          64.4095   87.6453   14.1842 C.3     1  UNL1        0.0888
     26 C          63.8073   86.2742   14.2722 C.3     1  UNL1        0.0748
     27 C          63.7847   85.3861   13.0637 C.3     1  UNL1        0.0432
     28 C          63.1826   84.0150   13.1516 C.ar    1  UNL1       -0.0234
     29 C          63.1600   83.1268   11.9431 C.ar    1  UNL1       -0.0045
     30 C          62.5578   81.7559   12.0311 C.ar    1  UNL1       -0.0003
     31 C          61.9783   81.2731   13.3277 C.ar    1  UNL1       -0.0003
     32 C          62.0009   82.1612   14.5362 C.ar    1  UNL1       -0.0032
     33 C          62.6030   83.5322   14.4482 C.ar    1  UNL1       -0.0103
     34 C          62.6256   84.4205   15.6567 C.3     1  UNL1        0.0953
     35 N          63.2278   85.7914   15.5687 N.3     1  UNL1       -0.2934
     36 H          63.9782   85.8283   16.2586 H       1  UNL1        0.1236
@<TRIPOS>BOND
     1    13    14    2
     2    14    12    1
     3    12     1    1
     4     1    25    1
     5    26    25    1
     6    26    27    1
     7    27    28    1
     8    28    29   ar
     9    29    30   ar
    10    30    31   ar
    11    31    32   ar
    12    32    33   ar
    13    33    34    1
    14    34    35    1
    15     2     1    1
    16     2     3    1
    17     3     4    1
    18     4     5    1
    19     5     6    1
    20     6     7   ar
    21     7     8   ar
    22     8     9   ar
    23     9    10   ar
    24    10    11   ar
    25    13    15    1
    26    15    16    1
    27    16    18    1
    28    18    19    1
    29    19    20   ar
    30    20    21   ar
    31    21    22   ar
    32    22    23   ar
    33    23    24   ar
    34    35    26    1
    35    11     2    1
    36    24    19   ar
    37    33    28   ar
    38    11     6   ar
    39    35    36    1
    40    16    17    1
@<TRIPOS>MOLECULE
*****
 36 40 0 0 0
SMALL
GASTEIGER

@<TRIPOS>ATOM
      1 N          64.2258   90.1994   14.9074 N.3     1  UNL1       -0.2641
      2 C          65.1532   91.3631   14.7181 C.3     1  UNL1        0.0981
      3 C          65.9608   91.8743   15.8741 C.3     1  UNL1        0.0224
      4 C          66.8882   93.0380   15.6847 C.3     1  UNL1        0.0065
      5 C          67.0079   93.6904   14.3394 C.3     1  UNL1        0.0277
      6 C          66.2003   93.1791   13.1834 C.ar    1  UNL1       -0.0073
      7 C          66.3200   93.8316   11.8380 C.ar    1  UNL1       -0.0015
      8 C          65.5124   93.3203   10.6820 C.ar    1  UNL1        0.0203
      9 C          64.5850   92.1567   10.8714 C.ar    1  UNL1        0.0985
     10 N          64.4653   91.5043   12.2167 N.ar    1  UNL1       -0.2471
     11 C          65.2729   92.0155   13.3727 C.ar    1  UNL1        0.0695
     12 C          63.2688   90.1833   16.0624 C.3     1  UNL1        0.0989
     13 C          63.1651   87.9063   17.3092 C.2     1  UNL1       -0.0122
     14 C          62.5311   88.9236   16.4076 C.2     1  UNL1       -0.0120
     15 C          62.4273   86.6467   17.6544 C.3     1  UNL1        0.0953
     16 N          62.2759   85.5615   16.6299 N.3     1  UNL1       -0.2900
     17 H          61.5079   85.8387   16.0186 H       1  UNL1        0.1239
     18 C          63.4295   85.2033   15.7406 C.3     1  UNL1        0.0974
     19 C          63.2299   84.2483   14.6012 C.ar    1  UNL1        0.0128
     20 C          63.8972   84.5043   13.2824 C.ar    1  UNL1        0.0002
     21 C          63.6975   83.5493   12.1431 C.ar    1  UNL1        0.0204
     22 C          62.8306   82.3384   12.3225 C.ar    1  UNL1        0.0989
     23 N          62.1634   82.0825   13.6413 N.ar    1  UNL1       -0.2426
     24 C          62.3630   83.0374   14.7806 C.ar    1  UNL1        0.0959
     25 C          64.2553   89.0519   13.9419 C.3     1  UNL1        0.0888
     26 C          63.1672   88.9032   12.9201 C.3     1  UNL1        0.0748
     27 C          63.1536   87.7135   12.0067 C.3     1  UNL1        0.0432
     28 C          62.0655   87.5648   10.9849 C.ar    1  UNL1       -0.0234
     29 C          62.0519   86.3752   10.0714 C.ar    1  UNL1       -0.0045
     30 C          60.9638   86.2265    9.0498 C.ar    1  UNL1       -0.0003
     31 C          59.8893   87.2675    8.9415 C.ar    1  UNL1       -0.0003
     32 C          59.9029   88.4571    9.8550 C.ar    1  UNL1       -0.0032
     33 C          60.9910   88.6058   10.8767 C.ar    1  UNL1       -0.0103
     34 C          61.0046   89.7955   11.7902 C.3     1  UNL1        0.0953
     35 N          62.0927   89.9442   12.8119 N.3     1  UNL1       -0.2934
     36 H          61.6365   89.9924   13.7230 H       1  UNL1        0.1236
@<TRIPOS>BOND
     1    13    14    2
     2    14    12    1
     3    12     1    1
     4     1    25    1
     5    26    25    1
     6    26    27    1
     7    27    28    1
     8    28    29   ar
     9    29    30   ar
    10    30    31   ar
    11    31    32   ar
    12    32    33   ar
    13    33    34    1
    14    34    35    1
    15     2     1    1
    16     2     3    1
    17     3     4    1
    18     4     5    1
    19     5     6    1
    20     6     7   ar
    21     7     8   ar
    22     8     9   ar
    23     9    10   ar
    24    10    11   ar
    25    13    15    1
    26    15    16    1
    27    16    18    1
    28    18    19    1
    29    19    20   ar
    30    20    21   ar
    31    21    22   ar
    32    22    23   ar
    33    23    24   ar
    34    35    26    1
    35    11     2    1
    36    24    19   ar
    37    33    28   ar
    38    11     6   ar
    39    35    36    1
    40    16    17    1
@<TRIPOS>MOLECULE
*****
 36 40 0 0 0
SMALL
GASTEIGER

@<TRIPOS>ATOM
      1 N          62.9105   90.1076   13.1161 N.3     1  UNL1       -0.2641
      2 C          63.8874   91.0712   12.5102 C.3     1  UNL1        0.0981
      3 C          63.8947   91.2991   11.0277 C.3     1  UNL1        0.0224
      4 C          64.8716   92.2628   10.4218 C.3     1  UNL1        0.0065
      5 C          65.8412   92.9984   11.2985 C.3     1  UNL1        0.0277
      6 C          65.8339   92.7705   12.7810 C.ar    1  UNL1       -0.0073
      7 C          66.8036   93.5062   13.6578 C.ar    1  UNL1       -0.0015
      8 C          66.7962   93.2783   15.1403 C.ar    1  UNL1        0.0203
      9 C          65.8193   92.3147   15.7462 C.ar    1  UNL1        0.0985
     10 N          64.8497   91.5790   14.8695 N.ar    1  UNL1       -0.2471
     11 C          64.8570   91.8069   13.3869 C.ar    1  UNL1        0.0695
     12 C          63.3255   89.2458   14.2714 C.3     1  UNL1        0.0989
     13 C          64.2395   86.9213   14.9867 C.2     1  UNL1       -0.0122
     14 C          64.2587   88.0924   14.0497 C.2     1  UNL1       -0.0120
     15 C          65.1726   85.7681   14.7649 C.3     1  UNL1        0.0953
     16 N          64.7152   84.3679   15.0484 N.3     1  UNL1       -0.2900
     17 H          64.6162   84.2897   16.0605 H       1  UNL1        0.1239
     18 C          63.4378   83.8601   14.4479 C.3     1  UNL1        0.0974
     19 C          63.4680   83.0918   13.1599 C.ar    1  UNL1        0.0128
     20 C          64.2084   83.6406   11.9764 C.ar    1  UNL1        0.0002
     21 C          64.2385   82.8723   10.6885 C.ar    1  UNL1        0.0204
     22 C          63.5282   81.5552   10.5840 C.ar    1  UNL1        0.0989
     23 N          62.7878   81.0065   11.7675 N.ar    1  UNL1       -0.2426
     24 C          62.7577   81.7748   13.0554 C.ar    1  UNL1        0.0959
     25 C          61.5185   90.0058   12.5665 C.3     1  UNL1        0.0888
     26 C          61.2445   89.1379   11.3741 C.3     1  UNL1        0.0748
     27 C          62.2079   88.0506   11.0006 C.3     1  UNL1        0.0432
     28 C          61.9338   87.1827    9.8082 C.ar    1  UNL1       -0.0234
     29 C          62.8972   86.0954    9.4347 C.ar    1  UNL1       -0.0045
     30 C          62.6232   85.2276    8.2424 C.ar    1  UNL1       -0.0003
     31 C          61.3858   85.4471    7.4235 C.ar    1  UNL1       -0.0003
     32 C          60.4224   86.5345    7.7970 C.ar    1  UNL1       -0.0032
     33 C          60.6964   87.4023    8.9893 C.ar    1  UNL1       -0.0103
     34 C          59.7330   88.4897    9.3629 C.3     1  UNL1        0.0953
     35 N          60.0071   89.3575   10.5552 N.3     1  UNL1       -0.2934
     36 H          59.2132   89.2497   11.1866 H       1  UNL1        0.1236
@<TRIPOS>BOND
     1    13    14    2
     2    14    12    1
     3    12     1    1
     4     1    25    1
     5    26    25    1
     6    26    27    1
     7    27    28    1
     8    28    29   ar
     9    29    30   ar
    10    30    31   ar
    11    31    32   ar
    12    32    33   ar
    13    33    34    1
    14    34    35    1
    15     2     1    1
    16     2     3    1
    17     3     4    1
    18     4     5    1
    19     5     6    1
    20     6     7   ar
    21     7     8   ar
    22     8     9   ar
    23     9    10   ar
    24    10    11   ar
    25    13    15    1
    26    15    16    1
    27    16    18    1
    28    18    19    1
    29    19    20   ar
    30    20    21   ar
    31    21    22   ar
    32    22    23   ar
    33    23    24   ar
    34    35    26    1
    35    11     2    1
    36    24    19   ar
    37    33    28   ar
    38    11     6   ar
    39    35    36    1
    40    16    17    1
@<TRIPOS>MOLECULE
*****
 36 40 0 0 0
SMALL
GASTEIGER

@<TRIPOS>ATOM
      1 N          65.3877   92.4278   12.1415 N.3     1  UNL1       -0.2641
      2 C          66.4235   92.7707   11.1122 C.3     1  UNL1        0.0981
      3 C          67.4492   91.7520   10.7119 C.3     1  UNL1        0.0224
      4 C          68.4849   92.0949    9.6826 C.3     1  UNL1        0.0065
      5 C          68.4951   93.4566    9.0535 C.3     1  UNL1        0.0277
      6 C          67.4694   94.4753    9.4537 C.ar    1  UNL1       -0.0073
      7 C          67.4795   95.8370    8.8246 C.ar    1  UNL1       -0.0015
      8 C          66.4539   96.8557    9.2248 C.ar    1  UNL1        0.0203
      9 C          65.4181   96.5128   10.2542 C.ar    1  UNL1        0.0985
     10 N          65.4080   95.1511   10.8833 N.ar    1  UNL1       -0.2471
     11 C          66.4336   94.1323   10.4831 C.ar    1  UNL1        0.0695
     12 C          63.9588   92.2299   11.7306 C.3     1  UNL1        0.0989
     13 C          62.8841   90.4542   10.1680 C.2     1  UNL1       -0.0122
     14 C          63.4265   90.8448   11.5108 C.2     1  UNL1       -0.0120
     15 C          62.3518   89.0691    9.9482 C.3     1  UNL1        0.0953
     16 N          60.9985   88.6933   10.4749 N.3     1  UNL1       -0.2900
     17 H          60.3119   89.1590    9.8816 H       1  UNL1        0.1239
     18 C          60.5975   87.2499   10.5505 C.3     1  UNL1        0.0974
     19 C          61.6023   86.1759   10.2559 C.ar    1  UNL1        0.0128
     20 C          62.1018   85.9798    8.8552 C.ar    1  UNL1        0.0002
     21 C          63.1066   84.9058    8.5607 C.ar    1  UNL1        0.0204
     22 C          63.6120   84.0278    9.6670 C.ar    1  UNL1        0.0989
     23 N          63.1125   84.2238   11.0677 N.ar    1  UNL1       -0.2426
     24 C          62.1077   85.2979   11.3622 C.ar    1  UNL1        0.0959
     25 C          65.7809   92.2828   13.5818 C.3     1  UNL1        0.0888
     26 C          65.0630   91.3013   14.4601 C.3     1  UNL1        0.0748
     27 C          65.1615   89.8312   14.1788 C.3     1  UNL1        0.0432
     28 C          64.4436   88.8498   15.0571 C.ar    1  UNL1       -0.0234
     29 C          64.5421   87.3797   14.7757 C.ar    1  UNL1       -0.0045
     30 C          63.8242   86.3983   15.6540 C.ar    1  UNL1       -0.0003
     31 C          63.0078   86.8869   16.8136 C.ar    1  UNL1       -0.0003
     32 C          62.9093   88.3570   17.0949 C.ar    1  UNL1       -0.0032
     33 C          63.6272   89.3384   16.2167 C.ar    1  UNL1       -0.0103
     34 C          63.5287   90.8085   16.4979 C.3     1  UNL1        0.0953
     35 N          64.2466   91.7900   15.6197 N.3     1  UNL1       -0.2934
     36 H          64.8777   92.3178   16.2225 H       1  UNL1        0.1236
@<TRIPOS>BOND
     1    13    14    2
     2    14    12    1
     3    12     1    1
     4     1    25    1
     5    26    25    1
     6    26    27    1
     7    27    28    1
     8    28    29   ar
     9    29    30   ar
    10    30    31   ar
    11    31    32   ar
    12    32    33   ar
    13    33    34    1
    14    34    35    1
    15     2     1    1
    16     2     3    1
    17     3     4    1
    18     4     5    1
    19     5     6    1
    20     6     7   ar
    21     7     8   ar
    22     8     9   ar
    23     9    10   ar
    24    10    11   ar
    25    13    15    1
    26    15    16    1
    27    16    18    1
    28    18    19    1
    29    19    20   ar
    30    20    21   ar
    31    21    22   ar
    32    22    23   ar
    33    23    24   ar
    34    35    26    1
    35    11     2    1
    36    24    19   ar
    37    33    28   ar
    38    11     6   ar
    39    35    36    1
    40    16    17    1
@<TRIPOS>MOLECULE
*****
 36 40 0 0 0
SMALL
GASTEIGER

@<TRIPOS>ATOM
      1 N          60.9757   87.4363   10.2341 N.3     1  UNL1       -0.2641
      2 C          61.8691   86.2782    9.9015 C.3     1  UNL1        0.0981
      3 C          62.2309   85.9961    8.4734 C.3     1  UNL1        0.0224
      4 C          63.1243   84.8380    8.1407 C.3     1  UNL1        0.0065
      5 C          63.6559   83.9620    9.2361 C.3     1  UNL1        0.0277
      6 C          63.2940   84.2441   10.6642 C.ar    1  UNL1       -0.0073
      7 C          63.8256   83.3681   11.7597 C.ar    1  UNL1       -0.0015
      8 C          63.4638   83.6501   13.1878 C.ar    1  UNL1        0.0203
      9 C          62.5704   84.8082   13.5205 C.ar    1  UNL1        0.0985
     10 N          62.0388   85.6842   12.4251 N.ar    1  UNL1       -0.2471
     11 C          62.4007   85.4022   10.9969 C.ar    1  UNL1        0.0695
     12 C          59.8526   87.8064    9.3113 C.3     1  UNL1        0.0989
     13 C          59.0113   88.9671    7.1445 C.2     1  UNL1       -0.0122
     14 C          60.1267   88.6335    8.0903 C.2     1  UNL1       -0.0120
     15 C          59.2854   89.7942    5.9236 C.3     1  UNL1        0.0953
     16 N          59.0156   91.2696    5.9410 N.3     1  UNL1       -0.2900
     17 H          59.7987   91.7064    6.4273 H       1  UNL1        0.1239
     18 C          58.8367   92.0147    4.6515 C.3     1  UNL1        0.0974
     19 C          60.0054   92.2152    3.7328 C.ar    1  UNL1        0.0128
     20 C          61.3426   91.6322    4.0820 C.ar    1  UNL1        0.0002
     21 C          62.5112   91.8327    3.1633 C.ar    1  UNL1        0.0204
     22 C          62.3425   92.6162    1.8953 C.ar    1  UNL1        0.0989
     23 N          61.0053   93.1991    1.5460 N.ar    1  UNL1       -0.2426
     24 C          59.8367   92.9986    2.4648 C.ar    1  UNL1        0.0959
     25 C          61.2054   88.2243   11.4896 C.3     1  UNL1        0.0888
     26 C          62.2165   89.3323   11.5053 C.3     1  UNL1        0.0748
     27 C          63.0932   89.5306   12.7061 C.3     1  UNL1        0.0432
     28 C          64.1043   90.6386   12.7217 C.ar    1  UNL1       -0.0234
     29 C          64.9810   90.8370   13.9226 C.ar    1  UNL1       -0.0045
     30 C          65.9920   91.9449   13.9382 C.ar    1  UNL1       -0.0003
     31 C          66.1263   92.8545   12.7530 C.ar    1  UNL1       -0.0003
     32 C          65.2496   92.6561   11.5522 C.ar    1  UNL1       -0.0032
     33 C          64.2386   91.5482   11.5366 C.ar    1  UNL1       -0.0103
     34 C          63.3618   91.3498   10.3357 C.3     1  UNL1        0.0953
     35 N          62.3508   90.2418   10.3201 N.3     1  UNL1       -0.2934
     36 H          62.5739   89.6509    9.5192 H       1  UNL1        0.1236
@<TRIPOS>BOND
     1    13    14    2
     2    14    12    1
     3    12     1    1
     4     1    25    1
     5    26    25    1
     6    26    27    1
     7    27    28    1
     8    28    29   ar
     9    29    30   ar
    10    30    31   ar
    11    31    32   ar
    12    32    33   ar
    13    33    34    1
    14    34    35    1
    15     2     1    1
    16     2     3    1
    17     3     4    1
    18     4     5    1
    19     5     6    1
    20     6     7   ar
    21     7     8   ar
    22     8     9   ar
    23     9    10   ar
    24    10    11   ar
    25    13    15    1
    26    15    16    1
    27    16    18    1
    28    18    19    1
    29    19    20   ar
    30    20    21   ar
    31    21    22   ar
    32    22    23   ar
    33    23    24   ar
    34    35    26    1
    35    11     2    1
    36    24    19   ar
    37    33    28   ar
    38    11     6   ar
    39    35    36    1
    40    16    17    1
@<TRIPOS>MOLECULE
*****
 36 40 0 0 0
SMALL
GASTEIGER

@<TRIPOS>ATOM
      1 N          61.5522   87.7322   10.9587 N.3     1  UNL1       -0.2641
      2 C          60.7870   87.3306    9.7327 C.3     1  UNL1        0.0981
      3 C          59.4221   87.8995    9.4806 C.3     1  UNL1        0.0224
      4 C          58.6569   87.4979    8.2546 C.3     1  UNL1        0.0065
      5 C          59.2565   86.5274    7.2806 C.3     1  UNL1        0.0277
      6 C          60.6213   85.9585    7.5327 C.ar    1  UNL1       -0.0073
      7 C          61.2210   84.9880    6.5587 C.ar    1  UNL1       -0.0015
      8 C          62.5858   84.4191    6.8108 C.ar    1  UNL1        0.0203
      9 C          63.3511   84.8207    8.0369 C.ar    1  UNL1        0.0985
     10 N          62.7515   85.7912    9.0108 N.ar    1  UNL1       -0.2471
     11 C          61.3866   86.3601    8.7587 C.ar    1  UNL1        0.0695
     12 C          62.6128   86.8266   11.5110 C.3     1  UNL1        0.0989
     13 C          63.0977   84.4160   12.3500 C.2     1  UNL1       -0.0122
     14 C          62.2266   85.6370   12.3392 C.2     1  UNL1       -0.0120
     15 C          62.7115   83.2265   13.1781 C.3     1  UNL1        0.0953
     16 N          63.0914   83.1668   14.6280 N.3     1  UNL1       -0.2900
     17 H          63.4068   82.2141   14.8108 H       1  UNL1        0.1239
     18 C          64.1504   84.0838   15.1642 C.3     1  UNL1        0.0974
     19 C          63.7660   85.4037   15.7643 C.ar    1  UNL1        0.0128
     20 C          62.9543   85.4465   17.0249 C.ar    1  UNL1        0.0002
     21 C          62.5699   86.7664   17.6250 C.ar    1  UNL1        0.0204
     22 C          62.9972   88.0435   16.9643 C.ar    1  UNL1        0.0989
     23 N          63.8089   88.0007   15.7037 N.ar    1  UNL1       -0.2426
     24 C          64.1933   86.6808   15.1037 C.ar    1  UNL1        0.0959
     25 C          61.2568   89.0393   11.6325 C.3     1  UNL1        0.0888
     26 C          62.3828   89.9213   12.0848 C.3     1  UNL1        0.0748
     27 C          63.1452   90.7371   11.0834 C.3     1  UNL1        0.0432
     28 C          64.2712   91.6191   11.5357 C.ar    1  UNL1       -0.0234
     29 C          65.0336   92.4349   10.5343 C.ar    1  UNL1       -0.0045
     30 C          66.1595   93.3168   10.9866 C.ar    1  UNL1       -0.0003
     31 C          66.5229   93.3828   12.4405 C.ar    1  UNL1       -0.0003
     32 C          65.7604   92.5669   13.4419 C.ar    1  UNL1       -0.0032
     33 C          64.6346   91.6851   12.9895 C.ar    1  UNL1       -0.0103
     34 C          63.8720   90.8691   13.9910 C.3     1  UNL1        0.0953
     35 N          62.7462   89.9873   13.5387 N.3     1  UNL1       -0.2934
     36 H          61.9116   90.2963   14.0370 H       1  UNL1        0.1236
@<TRIPOS>BOND
     1    13    14    2
     2    14    12    1
     3    12     1    1
     4     1    25    1
     5    26    25    1
     6    26    27    1
     7    27    28    1
     8    28    29   ar
     9    29    30   ar
    10    30    31   ar
    11    31    32   ar
    12    32    33   ar
    13    33    34    1
    14    34    35    1
    15     2     1    1
    16     2     3    1
    17     3     4    1
    18     4     5    1
    19     5     6    1
    20     6     7   ar
    21     7     8   ar
    22     8     9   ar
    23     9    10   ar
    24    10    11   ar
    25    13    15    1
    26    15    16    1
    27    16    18    1
    28    18    19    1
    29    19    20   ar
    30    20    21   ar
    31    21    22   ar
    32    22    23   ar
    33    23    24   ar
    34    35    26    1
    35    11     2    1
    36    24    19   ar
    37    33    28   ar
    38    11     6   ar
    39    35    36    1
    40    16    17    1
@<TRIPOS>MOLECULE
*****
 36 40 0 0 0
SMALL
GASTEIGER

@<TRIPOS>ATOM
      1 N          63.4556   90.3501   13.6672 N.3     1  UNL1       -0.2641
      2 C          64.5518   91.3226   13.9876 C.3     1  UNL1        0.0981
      3 C          65.0266   91.4783   15.4019 C.3     1  UNL1        0.0224
      4 C          66.1228   92.4508   15.7223 C.3     1  UNL1        0.0065
      5 C          66.7441   93.2677   14.6284 C.3     1  UNL1        0.0277
      6 C          66.2693   93.1120   13.2141 C.ar    1  UNL1       -0.0073
      7 C          66.8906   93.9289   12.1202 C.ar    1  UNL1       -0.0015
      8 C          66.4158   93.7733   10.7059 C.ar    1  UNL1        0.0203
      9 C          65.3196   92.8008   10.3855 C.ar    1  UNL1        0.0985
     10 N          64.6983   91.9839   11.4794 N.ar    1  UNL1       -0.2471
     11 C          65.1731   92.1395   12.8937 C.ar    1  UNL1        0.0695
     12 C          63.2577   89.1344   14.5233 C.3     1  UNL1        0.0989
     13 C          64.2108   86.7182   14.4666 C.2     1  UNL1       -0.0122
     14 C          64.3938   88.1806   14.7456 C.2     1  UNL1       -0.0120
     15 C          65.3469   85.7644   14.6889 C.3     1  UNL1        0.0953
     16 N          65.0760   84.3826   15.2062 N.3     1  UNL1       -0.2900
     17 H          65.2030   84.4167   16.2177 H       1  UNL1        0.1239
     18 C          63.7451   83.7367   14.9585 C.3     1  UNL1        0.0974
     19 C          63.5271   82.9193   13.7197 C.ar    1  UNL1        0.0128
     20 C          63.0236   81.5106   13.8297 C.ar    1  UNL1        0.0002
     21 C          62.8056   80.6933   12.5910 C.ar    1  UNL1        0.0204
     22 C          63.0911   81.2846   11.2423 C.ar    1  UNL1        0.0989
     23 N          63.5945   82.6933   11.1324 N.ar    1  UNL1       -0.2426
     24 C          63.8125   83.5106   12.3711 C.ar    1  UNL1        0.0959
     25 C          62.5574   90.5933   12.4908 C.3     1  UNL1        0.0888
     26 C          62.1458   89.4492   11.6123 C.3     1  UNL1        0.0748
     27 C          61.2096   89.6843   10.4642 C.3     1  UNL1        0.0432
     28 C          60.7980   88.5403    9.5856 C.ar    1  UNL1       -0.0234
     29 C          59.8618   88.7754    8.4375 C.ar    1  UNL1       -0.0045
     30 C          59.4502   87.6313    7.5591 C.ar    1  UNL1       -0.0003
     31 C          59.9748   86.2522    7.8288 C.ar    1  UNL1       -0.0003
     32 C          60.9110   86.0171    8.9769 C.ar    1  UNL1       -0.0032
     33 C          61.3226   87.1611    9.8553 C.ar    1  UNL1       -0.0103
     34 C          62.2588   86.9260   11.0035 C.3     1  UNL1        0.0953
     35 N          62.6704   88.0701   11.8819 N.3     1  UNL1       -0.2934
     36 H          63.6877   88.1273   11.8335 H       1  UNL1        0.1236
@<TRIPOS>BOND
     1    13    14    2
     2    14    12    1
     3    12     1    1
     4     1    25    1
     5    26    25    1
     6    26    27    1
     7    27    28    1
     8    28    29   ar
     9    29    30   ar
    10    30    31   ar
    11    31    32   ar
    12    32    33   ar
    13    33    34    1
    14    34    35    1
    15     2     1    1
    16     2     3    1
    17     3     4    1
    18     4     5    1
    19     5     6    1
    20     6     7   ar
    21     7     8   ar
    22     8     9   ar
    23     9    10   ar
    24    10    11   ar
    25    13    15    1
    26    15    16    1
    27    16    18    1
    28    18    19    1
    29    19    20   ar
    30    20    21   ar
    31    21    22   ar
    32    22    23   ar
    33    23    24   ar
    34    35    26    1
    35    11     2    1
    36    24    19   ar
    37    33    28   ar
    38    11     6   ar
    39    35    36    1
    40    16    17    1
@<TRIPOS>MOLECULE
*****
 36 40 0 0 0
SMALL
GASTEIGER

@<TRIPOS>ATOM
      1 N          63.8740   89.4034   14.6502 N.3     1  UNL1       -0.2641
      2 C          63.5083   88.3160   15.6164 C.3     1  UNL1        0.0981
      3 C          63.0952   88.6638   17.0158 C.3     1  UNL1        0.0224
      4 C          62.7294   87.5764   17.9821 C.3     1  UNL1        0.0065
      5 C          62.7767   86.1411   17.5490 C.3     1  UNL1        0.0277
      6 C          63.1898   85.7932   16.1496 C.ar    1  UNL1       -0.0073
      7 C          63.2372   84.3579   15.7164 C.ar    1  UNL1       -0.0015
      8 C          63.6503   84.0100   14.3170 C.ar    1  UNL1        0.0203
      9 C          64.0160   85.0975   13.3508 C.ar    1  UNL1        0.0985
     10 N          63.9687   86.5328   13.7839 N.ar    1  UNL1       -0.2471
     11 C          63.5556   86.8807   15.1833 C.ar    1  UNL1        0.0695
     12 C          65.3154   89.7505   14.4221 C.3     1  UNL1        0.0989
     13 C          66.6704   91.9137   14.9064 C.2     1  UNL1       -0.0122
     14 C          65.6999   91.1526   14.0528 C.2     1  UNL1       -0.0120
     15 C          67.0548   93.3157   14.5371 C.3     1  UNL1        0.0953
     16 N          66.2011   94.1019   13.5867 N.3     1  UNL1       -0.2900
     17 H          66.6016   95.0387   13.5371 H       1  UNL1        0.1239
     18 C          66.0235   93.6316   12.1734 C.3     1  UNL1        0.0974
     19 C          66.4627   94.5012   11.0328 C.ar    1  UNL1        0.0128
     20 C          67.1009   93.8857    9.8230 C.ar    1  UNL1        0.0002
     21 C          67.5401   94.7553    8.6824 C.ar    1  UNL1        0.0204
     22 C          67.3410   96.2404    8.7517 C.ar    1  UNL1        0.0989
     23 N          66.7028   96.8559    9.9615 N.ar    1  UNL1       -0.2426
     24 C          66.2636   95.9863   11.1021 C.ar    1  UNL1        0.0959
     25 C          62.7985   90.1438   13.9120 C.3     1  UNL1        0.0888
     26 C          62.0389   89.4631   12.8120 C.3     1  UNL1        0.0748
     27 C          62.7524   88.5448   11.8647 C.3     1  UNL1        0.0432
     28 C          61.9928   87.8641   10.7648 C.ar    1  UNL1       -0.0234
     29 C          62.7064   86.9458    9.8175 C.ar    1  UNL1       -0.0045
     30 C          61.9468   86.2652    8.7176 C.ar    1  UNL1       -0.0003
     31 C          60.4736   86.5029    8.5651 C.ar    1  UNL1       -0.0003
     32 C          59.7601   87.4213    9.5124 C.ar    1  UNL1       -0.0032
     33 C          60.5197   88.1019   10.6122 C.ar    1  UNL1       -0.0103
     34 C          59.8061   89.0203   11.5596 C.3     1  UNL1        0.0953
     35 N          60.5657   89.7009   12.6595 N.3     1  UNL1       -0.2934
     36 H          60.1294   89.4185   13.5371 H       1  UNL1        0.1236
@<TRIPOS>BOND
     1    13    14    2
     2    14    12    1
     3    12     1    1
     4     1    25    1
     5    26    25    1
     6    26    27    1
     7    27    28    1
     8    28    29   ar
     9    29    30   ar
    10    30    31   ar
    11    31    32   ar
    12    32    33   ar
    13    33    34    1
    14    34    35    1
    15     2     1    1
    16     2     3    1
    17     3     4    1
    18     4     5    1
    19     5     6    1
    20     6     7   ar
    21     7     8   ar
    22     8     9   ar
    23     9    10   ar
    24    10    11   ar
    25    13    15    1
    26    15    16    1
    27    16    18    1
    28    18    19    1
    29    19    20   ar
    30    20    21   ar
    31    21    22   ar
    32    22    23   ar
    33    23    24   ar
    34    35    26    1
    35    11     2    1
    36    24    19   ar
    37    33    28   ar
    38    11     6   ar
    39    35    36    1
    40    16    17    1
