@<TRIPOS>MOLECULE
*****
 27 29 0 0 0
SMALL
GASTEIGER

@<TRIPOS>ATOM
      1 C          65.7775   93.2390   11.8794 C.ar    1  UNL1        0.0615
      2 C          66.3921   93.4397   13.2329 C.ar    1  UNL1        0.0186
      3 C          66.0016   92.5477   14.3737 C.ar    1  UNL1        0.0398
      4 C          64.9963   91.4547   14.1612 C.ar    1  UNL1        0.1568
      5 C          64.3817   91.2540   12.8077 C.ar    1  UNL1        0.1242
      6 N          63.3715   90.2680   12.3004 N.ar    1  UNL1       -0.2208
      7 C          63.1378   90.5507   10.8460 C.ar    1  UNL1        0.1659
      8 S          64.0035   91.7114   10.4544 S.2     1  UNL1       -0.0500
      9 C          64.7723   92.1461   11.6668 C.ar    1  UNL1        0.0664
     10 N          66.1681   94.1311   10.7386 N.am    1  UNL1       -0.2581
     11 C          67.2108   93.6819    9.7582 C.2     1  UNL1        0.2298
     12 C          67.6014   94.5739    8.6174 C.3     1  UNL1        0.0952
     13 O          67.8628   92.3406    9.9189 O.2     1  UNL1       -0.2745
     14 C          66.0323   96.6538   11.3445 C.3     1  UNL1        0.0237
     15 C          65.5160   95.4723   10.5780 C.3     1  UNL1        0.0983
     16 N          62.2026   89.8039    9.9418 N.am    1  UNL1       -0.2594
     17 C          61.9678   88.3373   10.1517 C.2     1  UNL1        0.2683
     18 O          62.6682   87.6176   11.2659 O.2     1  UNL1       -0.2681
     19 H          61.7429   90.2762    9.2105 H       1  UNL1        0.1571
     20 C          61.0326   87.5905    9.2475 C.ar    1  UNL1        0.1330
     21 C          59.6153   87.9707    8.9367 C.ar    1  UNL1        0.0458
     22 C          59.0573   86.9475    7.9924 C.ar    1  UNL1        0.1218
     23 N          60.1297   85.9349    7.7195 N.ar    1  UNL1       -0.1675
     24 N          61.3505   86.3323    8.4953 N.ar    1  UNL1       -0.2443
     25 C          62.6595   85.6001    8.5152 C.3     1  UNL1        0.1539
     26 O          64.6058   90.5627   15.3022 O.3     1  UNL1       -0.4699
     27 C          63.7341   91.0908   16.4027 C.3     1  UNL1        0.2525
@<TRIPOS>BOND
     1    14    15    1
     2    15    10    1
     3    10    11   am
     4    11    12    1
     5    11    13    2
     6    10     1    1
     7     1     2   ar
     8     2     3   ar
     9     3     4   ar
    10     4    26    1
    11    26    27    1
    12     4     5   ar
    13     5     6   ar
    14     6     7   ar
    15     7    16    1
    16    16    17   am
    17    17    18    2
    18    17    20    1
    19    20    21   ar
    20    21    22   ar
    21    22    23   ar
    22    23    24   ar
    23    24    25    1
    24     7     8   ar
    25     8     9   ar
    26     9     1   ar
    27     9     5   ar
    28    24    20   ar
    29    16    19    1
@<TRIPOS>MOLECULE
*****
 27 29 0 0 0
SMALL
GASTEIGER

@<TRIPOS>ATOM
      1 C          61.8606   86.5289   10.9128 C.ar    1  UNL1        0.0615
      2 C          60.6664   86.6253   10.0103 C.ar    1  UNL1        0.0186
      3 C          59.9647   87.9390    9.8326 C.ar    1  UNL1        0.0398
      4 C          60.4571   89.1565   10.5574 C.ar    1  UNL1        0.1568
      5 C          61.6513   89.0601   11.4600 C.ar    1  UNL1        0.1242
      6 N          62.3606   90.0817   12.2987 N.ar    1  UNL1       -0.2208
      7 C          63.5007   89.3992   12.9947 C.ar    1  UNL1        0.1659
      8 S          63.4960   87.9559   12.5862 S.2     1  UNL1       -0.0500
      9 C          62.3531   87.7463   11.6377 C.ar    1  UNL1        0.0664
     10 N          62.5623   85.2152   11.0905 N.am    1  UNL1       -0.2581
     11 C          63.2818   84.5867    9.9340 C.2     1  UNL1        0.2298
     12 C          63.9835   83.2730   10.1116 C.3     1  UNL1        0.0952
     13 O          63.2995   85.2721    8.5999 O.2     1  UNL1       -0.2745
     14 C          63.7745   84.5285   13.2835 C.3     1  UNL1        0.0237
     15 C          62.5446   84.5298   12.4247 C.3     1  UNL1        0.0983
     16 N          64.4745   90.0465   13.9343 N.am    1  UNL1       -0.2594
     17 C          65.1489   91.3296   13.5487 C.2     1  UNL1        0.2683
     18 O          64.8497   91.9656   12.2236 O.2     1  UNL1       -0.2681
     19 H          64.6709   89.6291   14.8040 H       1  UNL1        0.1571
     20 C          66.1227   91.9768   14.4884 C.ar    1  UNL1        0.1330
     21 C          67.5522   92.3129   14.1830 C.ar    1  UNL1        0.0458
     22 C          68.1509   92.9453   15.4043 C.ar    1  UNL1        0.1218
     23 N          67.0914   93.0000   16.4647 N.ar    1  UNL1       -0.1675
     24 N          65.8378   92.4013   15.8986 N.ar    1  UNL1       -0.2443
     25 C          64.5292   92.2533   16.6166 C.3     1  UNL1        0.1539
     26 O          59.7553   90.4703   10.3797 O.3     1  UNL1       -0.4699
     27 C          58.9480   91.0475   11.5044 C.3     1  UNL1        0.2525
@<TRIPOS>BOND
     1    14    15    1
     2    15    10    1
     3    10    11   am
     4    11    12    1
     5    11    13    2
     6    10     1    1
     7     1     2   ar
     8     2     3   ar
     9     3     4   ar
    10     4    26    1
    11    26    27    1
    12     4     5   ar
    13     5     6   ar
    14     6     7   ar
    15     7    16    1
    16    16    17   am
    17    17    18    2
    18    17    20    1
    19    20    21   ar
    20    21    22   ar
    21    22    23   ar
    22    23    24   ar
    23    24    25    1
    24     7     8   ar
    25     8     9   ar
    26     9     1   ar
    27     9     5   ar
    28    24    20   ar
    29    16    19    1
@<TRIPOS>MOLECULE
*****
 27 29 0 0 0
SMALL
GASTEIGER

@<TRIPOS>ATOM
      1 C          64.5753   90.1019   14.3457 C.ar    1  UNL1        0.0615
      2 C          65.5132   91.1919   14.7724 C.ar    1  UNL1        0.0186
      3 C          65.8299   92.3187   13.8343 C.ar    1  UNL1        0.0398
      4 C          65.2086   92.3555   12.4695 C.ar    1  UNL1        0.1568
      5 C          64.2706   91.2655   12.0428 C.ar    1  UNL1        0.1242
      6 N          63.5123   91.0354   10.7693 N.ar    1  UNL1       -0.2208
      7 C          62.7270   89.7664   10.9203 C.ar    1  UNL1        0.1659
      8 S          62.9999   89.2122   12.2872 S.2     1  UNL1       -0.0500
      9 C          63.9540   90.1387   12.9810 C.ar    1  UNL1        0.0664
     10 N          64.2586   88.9751   15.2839 N.am    1  UNL1       -0.2581
     11 C          63.3774   89.2151   16.4739 C.2     1  UNL1        0.2298
     12 C          63.0607   88.0885   17.4120 C.3     1  UNL1        0.0952
     13 O          62.8131   90.5819   16.7257 O.2     1  UNL1       -0.2745
     14 C          63.9862   86.5649   14.3530 C.3     1  UNL1        0.0237
     15 C          64.8230   87.6084   15.0320 C.3     1  UNL1        0.0983
     16 N          61.8267   89.1583    9.8860 N.am    1  UNL1       -0.2594
     17 C          61.6591   87.6692    9.8197 C.2     1  UNL1        0.2683
     18 O          62.3917   86.7881   10.7877 O.2     1  UNL1       -0.2681
     19 H          61.3458   89.7365    9.2507 H       1  UNL1        0.1571
     20 C          60.7588   87.0611    8.7854 C.ar    1  UNL1        0.1330
     21 C          59.3530   87.4861    8.4806 C.ar    1  UNL1        0.0458
     22 C          58.8317   86.6089    7.3811 C.ar    1  UNL1        0.1218
     23 N          59.9153   85.6419    7.0063 N.ar    1  UNL1       -0.1675
     24 N          61.1064   85.9214    7.8743 N.ar    1  UNL1       -0.2443
     25 C          62.4152   85.1895    7.8376 C.3     1  UNL1        0.1539
     26 O          65.5254   93.4823   11.5314 O.3     1  UNL1       -0.4699
     27 C          66.6199   93.3288   10.5173 C.3     1  UNL1        0.2525
@<TRIPOS>BOND
     1    14    15    1
     2    15    10    1
     3    10    11   am
     4    11    12    1
     5    11    13    2
     6    10     1    1
     7     1     2   ar
     8     2     3   ar
     9     3     4   ar
    10     4    26    1
    11    26    27    1
    12     4     5   ar
    13     5     6   ar
    14     6     7   ar
    15     7    16    1
    16    16    17   am
    17    17    18    2
    18    17    20    1
    19    20    21   ar
    20    21    22   ar
    21    22    23   ar
    22    23    24   ar
    23    24    25    1
    24     7     8   ar
    25     8     9   ar
    26     9     1   ar
    27     9     5   ar
    28    24    20   ar
    29    16    19    1
@<TRIPOS>MOLECULE
*****
 27 29 0 0 0
SMALL
GASTEIGER

@<TRIPOS>ATOM
      1 C          66.1830   93.3673   11.9681 C.ar    1  UNL1        0.0615
      2 C          66.7437   93.6057   13.3388 C.ar    1  UNL1        0.0186
      3 C          66.2612   92.7870   14.4992 C.ar    1  UNL1        0.0398
      4 C          65.2181   91.7297   14.2891 C.ar    1  UNL1        0.1568
      5 C          64.6575   91.4913   12.9184 C.ar    1  UNL1        0.1242
      6 N          63.6278   90.5268   12.4090 N.ar    1  UNL1       -0.2208
      7 C          63.4739   90.7496   10.9336 C.ar    1  UNL1        0.1659
      8 S          64.4084   91.8517   10.5312 S.2     1  UNL1       -0.0500
      9 C          65.1399   92.3101   11.7579 C.ar    1  UNL1        0.0664
     10 N          66.6655   94.1862   10.8076 N.am    1  UNL1       -0.2581
     11 C          66.4979   95.6768   10.8202 C.2     1  UNL1        0.2298
     12 C          66.9803   96.4956    9.6598 C.3     1  UNL1        0.0952
     13 O          65.8477   96.3484   11.9933 O.2     1  UNL1       -0.2745
     14 C          68.2119   92.3310    9.8499 C.3     1  UNL1        0.0237
     15 C          67.3157   93.5144    9.6345 C.3     1  UNL1        0.0983
     16 N          62.5479   90.0015   10.0209 N.am    1  UNL1       -0.2594
     17 C          62.1546   88.5905   10.3438 C.2     1  UNL1        0.2683
     18 O          62.6871   87.9275   11.5794 O.2     1  UNL1       -0.2681
     19 H          62.1984   90.4367    9.2099 H       1  UNL1        0.1571
     20 C          61.2286   87.8425    9.4309 C.ar    1  UNL1        0.1330
     21 C          61.2589   86.3676    9.1600 C.ar    1  UNL1        0.0458
     22 C          60.1588   86.0518    8.1904 C.ar    1  UNL1        0.1218
     23 N          59.4486   87.3315    7.8621 N.ar    1  UNL1       -0.1675
     24 N          60.1099   88.4383    8.6289 N.ar    1  UNL1       -0.2443
     25 C          59.7206   89.8866    8.5988 C.3     1  UNL1        0.1539
     26 O          64.7356   90.9109   15.4497 O.3     1  UNL1       -0.4699
     27 C          63.8837   91.5425   16.5105 C.3     1  UNL1        0.2525
@<TRIPOS>BOND
     1    14    15    1
     2    15    10    1
     3    10    11   am
     4    11    12    1
     5    11    13    2
     6    10     1    1
     7     1     2   ar
     8     2     3   ar
     9     3     4   ar
    10     4    26    1
    11    26    27    1
    12     4     5   ar
    13     5     6   ar
    14     6     7   ar
    15     7    16    1
    16    16    17   am
    17    17    18    2
    18    17    20    1
    19    20    21   ar
    20    21    22   ar
    21    22    23   ar
    22    23    24   ar
    23    24    25    1
    24     7     8   ar
    25     8     9   ar
    26     9     1   ar
    27     9     5   ar
    28    24    20   ar
    29    16    19    1
@<TRIPOS>MOLECULE
*****
 27 29 0 0 0
SMALL
GASTEIGER

@<TRIPOS>ATOM
      1 C          61.5471   86.2507    9.7043 C.ar    1  UNL1        0.0615
      2 C          60.5398   85.9711    8.6287 C.ar    1  UNL1        0.0186
      3 C          59.7900   87.1027    7.9908 C.ar    1  UNL1        0.0398
      4 C          60.0475   88.5142    8.4285 C.ar    1  UNL1        0.1568
      5 C          61.0548   88.7939    9.5042 C.ar    1  UNL1        0.1242
      6 N          61.5176   90.0722   10.1380 N.ar    1  UNL1       -0.2208
      7 C          62.5534   89.7304   11.1677 C.ar    1  UNL1        0.1659
      8 S          62.7308   88.2409   11.1702 S.2     1  UNL1       -0.0500
      9 C          61.8046   87.6621   10.1421 C.ar    1  UNL1        0.0664
     10 N          62.2969   85.1190   10.3423 N.am    1  UNL1       -0.2581
     11 C          63.2386   84.2869    9.5230 C.2     1  UNL1        0.2298
     12 C          63.9883   83.1553   10.1608 C.3     1  UNL1        0.0952
     13 O          63.4303   84.5868    8.0658 O.2     1  UNL1       -0.2745
     14 C          63.1968   85.1320   12.7795 C.3     1  UNL1        0.0237
     15 C          62.1051   84.8192   11.7994 C.3     1  UNL1        0.0983
     16 N          63.2837   90.7068   12.0415 N.am    1  UNL1       -0.2594
     17 C          63.9754   90.2296   13.2840 C.2     1  UNL1        0.2683
     18 O          63.9368   88.7762   13.6529 O.2     1  UNL1       -0.2681
     19 H          63.3090   91.6607   11.7995 H       1  UNL1        0.1571
     20 C          64.7056   91.2061   14.1578 C.ar    1  UNL1        0.1330
     21 C          65.7777   92.1563   13.7135 C.ar    1  UNL1        0.0458
     22 C          66.2266   92.9412   14.9104 C.ar    1  UNL1        0.1218
     23 N          65.4319   92.4760   16.0944 N.ar    1  UNL1       -0.1675
     24 N          64.4919   91.4035   15.6293 N.ar    1  UNL1       -0.2443
     25 C          63.5104   90.6593   16.4854 C.3     1  UNL1        0.1539
     26 O          59.2976   89.6459    7.7905 O.3     1  UNL1       -0.4699
     27 C          59.2606   89.7732    6.2964 C.3     1  UNL1        0.2525
@<TRIPOS>BOND
     1    14    15    1
     2    15    10    1
     3    10    11   am
     4    11    12    1
     5    11    13    2
     6    10     1    1
     7     1     2   ar
     8     2     3   ar
     9     3     4   ar
    10     4    26    1
    11    26    27    1
    12     4     5   ar
    13     5     6   ar
    14     6     7   ar
    15     7    16    1
    16    16    17   am
    17    17    18    2
    18    17    20    1
    19    20    21   ar
    20    21    22   ar
    21    22    23   ar
    22    23    24   ar
    23    24    25    1
    24     7     8   ar
    25     8     9   ar
    26     9     1   ar
    27     9     5   ar
    28    24    20   ar
    29    16    19    1
@<TRIPOS>MOLECULE
*****
 27 29 0 0 0
SMALL
GASTEIGER

@<TRIPOS>ATOM
      1 C          62.5891   85.5160   11.8031 C.ar    1  UNL1        0.0615
      2 C          61.5787   85.3617   10.7052 C.ar    1  UNL1        0.0186
      3 C          60.9556   86.5762   10.0834 C.ar    1  UNL1        0.0398
      4 C          61.3428   87.9450   10.5594 C.ar    1  UNL1        0.1568
      5 C          62.3531   88.0992   11.6573 C.ar    1  UNL1        0.1242
      6 N          62.9280   89.3108   12.3293 N.ar    1  UNL1       -0.2208
      7 C          63.9064   88.8450   13.3665 C.ar    1  UNL1        0.1659
      8 S          63.9363   87.3457   13.3355 S.2     1  UNL1       -0.0500
      9 C          62.9763   86.8847   12.2791 C.ar    1  UNL1        0.0664
     10 N          63.2122   84.3015   12.4249 N.am    1  UNL1       -0.2581
     11 C          62.8122   83.8776   13.8072 C.2     1  UNL1        0.2298
     12 C          63.4353   82.6632   14.4290 C.3     1  UNL1        0.0952
     13 O          61.7891   84.6684   14.5674 O.2     1  UNL1       -0.2745
     14 C          63.7968   82.4786   10.6684 C.3     1  UNL1        0.0237
     15 C          64.2353   83.5108   11.6646 C.3     1  UNL1        0.0983
     16 N          64.7133   89.7243   14.2753 N.am    1  UNL1       -0.2594
     17 C          65.2620   91.0248   13.7677 C.2     1  UNL1        0.2683
     18 O          65.0038   91.4461   12.3515 O.2     1  UNL1       -0.2681
     19 H          64.8828   89.4479   15.2048 H       1  UNL1        0.1571
     20 C          66.0689   91.9041   14.6765 C.ar    1  UNL1        0.1330
     21 C          67.4361   92.4501   14.3896 C.ar    1  UNL1        0.0458
     22 C          67.8623   93.2751   15.5676 C.ar    1  UNL1        0.1218
     23 N          66.7586   93.2390   16.5826 N.ar    1  UNL1       -0.1675
     24 N          65.6501   92.3916   16.0318 N.ar    1  UNL1       -0.2443
     25 C          64.3509   92.0855   16.7163 C.3     1  UNL1        0.1539
     26 O          60.7196   89.1595    9.9375 O.3     1  UNL1       -0.4699
     27 C          60.0511   89.0572    8.5987 C.3     1  UNL1        0.2525
@<TRIPOS>BOND
     1    14    15    1
     2    15    10    1
     3    10    11   am
     4    11    12    1
     5    11    13    2
     6    10     1    1
     7     1     2   ar
     8     2     3   ar
     9     3     4   ar
    10     4    26    1
    11    26    27    1
    12     4     5   ar
    13     5     6   ar
    14     6     7   ar
    15     7    16    1
    16    16    17   am
    17    17    18    2
    18    17    20    1
    19    20    21   ar
    20    21    22   ar
    21    22    23   ar
    22    23    24   ar
    23    24    25    1
    24     7     8   ar
    25     8     9   ar
    26     9     1   ar
    27     9     5   ar
    28    24    20   ar
    29    16    19    1
@<TRIPOS>MOLECULE
*****
 27 29 0 0 0
SMALL
GASTEIGER

@<TRIPOS>ATOM
      1 C          64.0245   90.5354   12.7582 C.ar    1  UNL1        0.0615
      2 C          63.6270   91.5730   11.7505 C.ar    1  UNL1        0.0186
      3 C          62.7610   91.1944   10.5859 C.ar    1  UNL1        0.0398
      4 C          62.2923   89.7781   10.4288 C.ar    1  UNL1        0.1568
      5 C          62.6898   88.7405   11.4365 C.ar    1  UNL1        0.1242
      6 N          62.3831   87.2762   11.5436 N.ar    1  UNL1       -0.2208
      7 C          63.0597   86.7498   12.7745 C.ar    1  UNL1        0.1659
      8 S          63.7845   87.8888   13.4281 S.2     1  UNL1       -0.0500
      9 C          63.5559   89.1192   12.6012 C.ar    1  UNL1        0.0664
     10 N          64.8906   90.9141   13.9229 N.am    1  UNL1       -0.2581
     11 C          66.1305   91.7290   13.7018 C.2     1  UNL1        0.2298
     12 C          66.9966   92.1076   14.8664 C.3     1  UNL1        0.0952
     13 O          66.5042   92.1651   12.3161 O.2     1  UNL1       -0.2745
     14 C          63.7564   91.4070   16.2077 C.3     1  UNL1        0.0237
     15 C          64.5169   90.4779   15.3085 C.3     1  UNL1        0.0983
     16 N          63.0186   85.3330   13.2656 N.am    1  UNL1       -0.2594
     17 C          63.0465   84.1982   12.2851 C.2     1  UNL1        0.2683
     18 O          63.1154   84.4801   10.8135 O.2     1  UNL1       -0.2681
     19 H          62.9734   85.1480   14.2315 H       1  UNL1        0.1571
     20 C          63.0054   82.7815   12.7764 C.ar    1  UNL1        0.1330
     21 C          62.4970   81.5969   12.0096 C.ar    1  UNL1        0.0458
     22 C          62.6429   80.3840   12.8801 C.ar    1  UNL1        0.1218
     23 N          63.2416   80.8190   14.1848 N.ar    1  UNL1       -0.1675
     24 N          63.4656   82.3009   14.1207 N.ar    1  UNL1       -0.2443
     25 C          64.0477   83.1524   15.2097 C.3     1  UNL1        0.1539
     26 O          61.4262   89.3996    9.2641 O.3     1  UNL1       -0.4699
     27 C          60.0048   88.9783    9.4921 C.3     1  UNL1        0.2525
@<TRIPOS>BOND
     1    14    15    1
     2    15    10    1
     3    10    11   am
     4    11    12    1
     5    11    13    2
     6    10     1    1
     7     1     2   ar
     8     2     3   ar
     9     3     4   ar
    10     4    26    1
    11    26    27    1
    12     4     5   ar
    13     5     6   ar
    14     6     7   ar
    15     7    16    1
    16    16    17   am
    17    17    18    2
    18    17    20    1
    19    20    21   ar
    20    21    22   ar
    21    22    23   ar
    22    23    24   ar
    23    24    25    1
    24     7     8   ar
    25     8     9   ar
    26     9     1   ar
    27     9     5   ar
    28    24    20   ar
    29    16    19    1
@<TRIPOS>MOLECULE
*****
 27 29 0 0 0
SMALL
GASTEIGER

@<TRIPOS>ATOM
      1 C          62.2495   89.8293   11.5218 C.ar    1  UNL1        0.0615
      2 C          61.4358   90.8175   10.7400 C.ar    1  UNL1        0.0186
      3 C          60.4579   90.3357    9.7099 C.ar    1  UNL1        0.0398
      4 C          60.2935   88.8656    9.4614 C.ar    1  UNL1        0.1568
      5 C          61.1072   87.8773   10.2431 C.ar    1  UNL1        0.1242
      6 N          61.1615   86.3785   10.2176 N.ar    1  UNL1       -0.2208
      7 C          62.1731   85.9340   11.2320 C.ar    1  UNL1        0.1659
      8 S          62.7440   87.1581   11.8845 S.2     1  UNL1       -0.0500
      9 C          62.0852   88.3591   11.2733 C.ar    1  UNL1        0.0664
     10 N          63.2275   90.3111   12.5520 N.am    1  UNL1       -0.2581
     11 C          64.3011   91.2862   12.1688 C.2     1  UNL1        0.2298
     12 C          65.2791   91.7680   13.1989 C.3     1  UNL1        0.0952
     13 O          64.3965   91.7793   10.7554 O.2     1  UNL1       -0.2745
     14 C          64.2119   88.9425   14.5288 C.3     1  UNL1        0.0237
     15 C          63.1320   89.8179   13.9654 C.3     1  UNL1        0.0983
     16 N          62.5481   84.5147   11.5399 N.am    1  UNL1       -0.2594
     17 C          62.4248   83.9935   12.9411 C.2     1  UNL1        0.2683
     18 O          61.9266   84.8915   14.0343 O.2     1  UNL1       -0.2681
     19 H          62.8751   83.9252   10.8224 H       1  UNL1        0.1571
     20 C          62.7998   82.5740   13.2489 C.ar    1  UNL1        0.1330
     21 C          62.2795   81.3532   12.5498 C.ar    1  UNL1        0.0458
     22 C          62.9191   80.1510   13.1788 C.ar    1  UNL1        0.1218
     23 N          63.8346   80.6288   14.2666 N.ar    1  UNL1       -0.1675
     24 N          63.7609   82.1264   14.3099 N.ar    1  UNL1       -0.2443
     25 C          64.5157   83.0195   15.2494 C.3     1  UNL1        0.1539
     26 O          59.3154   88.3838    8.4311 O.3     1  UNL1       -0.4699
     27 C          59.3217   88.9797    7.0546 C.3     1  UNL1        0.2525
@<TRIPOS>BOND
     1    14    15    1
     2    15    10    1
     3    10    11   am
     4    11    12    1
     5    11    13    2
     6    10     1    1
     7     1     2   ar
     8     2     3   ar
     9     3     4   ar
    10     4    26    1
    11    26    27    1
    12     4     5   ar
    13     5     6   ar
    14     6     7   ar
    15     7    16    1
    16    16    17   am
    17    17    18    2
    18    17    20    1
    19    20    21   ar
    20    21    22   ar
    21    22    23   ar
    22    23    24   ar
    23    24    25    1
    24     7     8   ar
    25     8     9   ar
    26     9     1   ar
    27     9     5   ar
    28    24    20   ar
    29    16    19    1
@<TRIPOS>MOLECULE
*****
 27 29 0 0 0
SMALL
GASTEIGER

@<TRIPOS>ATOM
      1 C          65.5595   92.2435   13.0176 C.ar    1  UNL1        0.0615
      2 C          65.9596   92.7849   14.3581 C.ar    1  UNL1        0.0186
      3 C          65.2789   92.2910   15.6000 C.ar    1  UNL1        0.0398
      4 C          64.1979   91.2556   15.5016 C.ar    1  UNL1        0.1568
      5 C          63.7978   90.7142   14.1612 C.ar    1  UNL1        0.1242
      6 N          62.7742   89.6958   13.7550 N.ar    1  UNL1       -0.2208
      7 C          62.8224   89.5603   12.2619 C.ar    1  UNL1        0.1659
      8 S          63.8758   90.4950   11.7454 S.2     1  UNL1       -0.0500
      9 C          64.4786   91.2081   12.9192 C.ar    1  UNL1        0.0664
     10 N          66.2403   92.7374   11.7756 N.am    1  UNL1       -0.2581
     11 C          67.6579   92.3397   11.4887 C.2     1  UNL1        0.2298
     12 C          68.3387   92.8336   10.2467 C.3     1  UNL1        0.0952
     13 O          68.3946   91.4480   12.4438 O.2     1  UNL1       -0.2745
     14 C          65.7313   95.1115   10.8511 C.3     1  UNL1        0.0237
     15 C          65.5035   93.6291   10.8206 C.3     1  UNL1        0.0983
     16 N          61.9674   88.6499   11.4312 N.am    1  UNL1       -0.2594
     17 C          61.6585   89.0041   10.0067 C.2     1  UNL1        0.2683
     18 O          62.2047   90.2686    9.4129 O.2     1  UNL1       -0.2681
     19 H          61.6089   87.8199   11.8209 H       1  UNL1        0.1571
     20 C          60.8034   88.0937    9.1760 C.ar    1  UNL1        0.1330
     21 C          60.7338   86.5999    9.2927 C.ar    1  UNL1        0.0458
     22 C          59.7552   86.1003    8.2716 C.ar    1  UNL1        0.1218
     23 N          59.2200   87.2853    7.5238 N.ar    1  UNL1       -0.1675
     24 N          59.8679   88.5173    8.0827 N.ar    1  UNL1       -0.2443
     25 C          59.6231   89.9257    7.6282 C.3     1  UNL1        0.1539
     26 O          63.5172   90.7617   16.7437 O.3     1  UNL1       -0.4699
     27 C          63.1503   89.3130   16.8723 C.3     1  UNL1        0.2525
@<TRIPOS>BOND
     1    14    15    1
     2    15    10    1
     3    10    11   am
     4    11    12    1
     5    11    13    2
     6    10     1    1
     7     1     2   ar
     8     2     3   ar
     9     3     4   ar
    10     4    26    1
    11    26    27    1
    12     4     5   ar
    13     5     6   ar
    14     6     7   ar
    15     7    16    1
    16    16    17   am
    17    17    18    2
    18    17    20    1
    19    20    21   ar
    20    21    22   ar
    21    22    23   ar
    22    23    24   ar
    23    24    25    1
    24     7     8   ar
    25     8     9   ar
    26     9     1   ar
    27     9     5   ar
    28    24    20   ar
    29    16    19    1
