@<TRIPOS>MOLECULE
*****
 24 27 0 0 0
SMALL
GASTEIGER

@<TRIPOS>ATOM
      1 C          64.2299   90.6172   13.9338 C.ar    1  UNL1        0.1418
      2 C          63.5222   91.3032   12.8031 C.ar    1  UNL1        0.0372
      3 C          62.8307   90.4913   11.7483 C.ar    1  UNL1        0.0095
      4 C          62.8469   88.9933   11.8242 C.ar    1  UNL1        0.0768
      5 C          62.1554   88.1814   10.7694 C.ar    1  UNL1        0.2350
      6 O          61.4477   88.8674    9.6387 O.2     1  UNL1       -0.2831
      7 C          62.1716   86.6834   10.8453 C.ar    1  UNL1        0.2081
      8 O          61.4801   85.8715    9.7906 O.3     1  UNL1       -0.5007
      9 C          62.8793   85.9973   11.9761 C.ar    1  UNL1        0.1819
     10 O          63.5708   86.8093   13.0309 O.2     1  UNL1       -0.4501
     11 C          63.5546   88.3073   12.9549 C.ar    1  UNL1        0.1516
     12 C          64.2461   89.1193   14.0097 C.ar    1  UNL1        0.0744
     13 H          61.0380   86.3000    9.0842 H       1  UNL1        0.2924
     14 C          62.8955   84.4994   12.0520 C.ar    1  UNL1        0.0409
     15 C          63.3902   83.6947   10.8868 C.ar    1  UNL1        0.0065
     16 C          63.4064   82.1966   10.9628 C.ar    1  UNL1        0.0403
     17 C          62.9278   81.5034   12.2039 C.ar    1  UNL1        0.1764
     18 C          62.4331   82.3081   13.3691 C.ar    1  UNL1        0.1765
     19 C          62.4169   83.8061   13.2932 C.ar    1  UNL1        0.0433
     20 O          62.0264   81.3536   14.4523 O.3     1  UNL1       -0.4346
     21 C          62.2697   79.9589   13.9567 C.3     1  UNL1        0.4294
     22 O          62.8268   80.0515   12.5671 O.3     1  UNL1       -0.4346
     23 C          66.3779   91.7585   14.8468 C.3     1  UNL1        0.2525
     24 O          64.9214   91.4292   14.9885 O.3     1  UNL1       -0.4713
@<TRIPOS>BOND
     1    23    24    1
     2    24     1    1
     3     1     2   ar
     4     2     3   ar
     5     3     4   ar
     6     4     5   ar
     7     5     6    2
     8     5     7   ar
     9     7     8    1
    10     7     9   ar
    11     9    14    1
    12    14    15   ar
    13    15    16   ar
    14    16    17   ar
    15    17    18   ar
    16    18    19   ar
    17    18    20    1
    18    20    21    1
    19    21    22    1
    20     9    10   ar
    21    10    11   ar
    22    11    12   ar
    23    12     1   ar
    24    11     4   ar
    25    19    14   ar
    26    22    17    1
    27     8    13    1
@<TRIPOS>MOLECULE
*****
 24 27 0 0 0
SMALL
GASTEIGER

@<TRIPOS>ATOM
      1 C          59.4971   88.4567    7.7342 C.ar    1  UNL1        0.1418
      2 C          59.5332   86.9722    7.9462 C.ar    1  UNL1        0.0372
      3 C          60.3560   86.3932    9.0588 C.ar    1  UNL1        0.0095
      4 C          61.1428   87.2988    9.9593 C.ar    1  UNL1        0.0768
      5 C          61.9656   86.7198   11.0718 C.ar    1  UNL1        0.2350
      6 O          62.0017   85.2353   11.2838 O.2     1  UNL1       -0.2831
      7 C          62.7524   87.6253   11.9724 C.ar    1  UNL1        0.2081
      8 O          63.5752   87.0464   13.0849 O.3     1  UNL1       -0.5007
      9 C          62.7163   89.1099   11.7604 C.ar    1  UNL1        0.1819
     10 O          61.8935   89.6888   10.6479 O.2     1  UNL1       -0.4501
     11 C          61.1067   88.7832    9.7473 C.ar    1  UNL1        0.1516
     12 C          60.2838   89.3622    8.6348 C.ar    1  UNL1        0.0744
     13 H          63.5978   86.1190   13.2173 H       1  UNL1        0.2924
     14 C          63.5031   90.0154   12.6609 C.ar    1  UNL1        0.0409
     15 C          63.4767   89.8041   14.1457 C.ar    1  UNL1        0.0065
     16 C          64.2635   90.7097   15.0463 C.ar    1  UNL1        0.0403
     17 C          65.0766   91.8265   14.4620 C.ar    1  UNL1        0.1764
     18 C          65.1030   92.0378   12.9772 C.ar    1  UNL1        0.1765
     19 C          64.3163   91.1323   12.0767 C.ar    1  UNL1        0.0433
     20 O          65.9897   93.2136   12.6921 O.3     1  UNL1       -0.4346
     21 C          66.5113   93.7290   14.0006 C.3     1  UNL1        0.4294
     22 O          65.9470   92.8717   15.0945 O.3     1  UNL1       -0.4346
     23 C          59.1854   90.2125    5.8449 C.3     1  UNL1        0.2525
     24 O          58.6742   89.0356    6.6217 O.3     1  UNL1       -0.4713
@<TRIPOS>BOND
     1    23    24    1
     2    24     1    1
     3     1     2   ar
     4     2     3   ar
     5     3     4   ar
     6     4     5   ar
     7     5     6    2
     8     5     7   ar
     9     7     8    1
    10     7     9   ar
    11     9    14    1
    12    14    15   ar
    13    15    16   ar
    14    16    17   ar
    15    17    18   ar
    16    18    19   ar
    17    18    20    1
    18    20    21    1
    19    21    22    1
    20     9    10   ar
    21    10    11   ar
    22    11    12   ar
    23    12     1   ar
    24    11     4   ar
    25    19    14   ar
    26    22    17    1
    27     8    13    1
@<TRIPOS>MOLECULE
*****
 24 27 0 0 0
SMALL
GASTEIGER

@<TRIPOS>ATOM
      1 C          66.5583   94.2161   11.1176 C.ar    1  UNL1        0.1418
      2 C          66.6659   94.2496   12.6133 C.ar    1  UNL1        0.0372
      3 C          65.8978   93.2637   13.4428 C.ar    1  UNL1        0.0095
      4 C          65.0221   92.2443   12.7765 C.ar    1  UNL1        0.0768
      5 C          64.2541   91.2583   13.6060 C.ar    1  UNL1        0.2350
      6 O          64.3617   91.2918   15.1017 O.2     1  UNL1       -0.2831
      7 C          63.3784   90.2389   12.9397 C.ar    1  UNL1        0.2081
      8 O          62.6103   89.2530   13.7692 O.3     1  UNL1       -0.5007
      9 C          63.2707   90.2054   11.4439 C.ar    1  UNL1        0.1819
     10 O          64.0388   91.1913   10.6144 O.2     1  UNL1       -0.4501
     11 C          64.9145   92.2108   11.2808 C.ar    1  UNL1        0.1516
     12 C          65.6826   93.1967   10.4513 C.ar    1  UNL1        0.0744
     13 H          62.6776   89.2739   14.7035 H       1  UNL1        0.2924
     14 C          62.3951   89.1860   10.7777 C.ar    1  UNL1        0.0409
     15 C          62.4845   87.7434   11.1789 C.ar    1  UNL1        0.0065
     16 C          61.6087   86.7240   10.5125 C.ar    1  UNL1        0.0403
     17 C          60.6437   87.1471    9.4451 C.ar    1  UNL1        0.1764
     18 C          60.5543   88.5897    9.0439 C.ar    1  UNL1        0.1765
     19 C          61.4299   89.6091    9.7101 C.ar    1  UNL1        0.0433
     20 O          59.5159   88.7081    7.9679 O.3     1  UNL1       -0.4346
     21 C          58.9635   87.3387    7.7041 C.3     1  UNL1        0.4294
     22 O          59.6605   86.3740    8.6170 O.3     1  UNL1       -0.4346
     23 C          67.6952   94.8657    8.8737 C.3     1  UNL1        0.2525
     24 O          67.3263   95.2020   10.2881 O.3     1  UNL1       -0.4713
@<TRIPOS>BOND
     1    23    24    1
     2    24     1    1
     3     1     2   ar
     4     2     3   ar
     5     3     4   ar
     6     4     5   ar
     7     5     6    2
     8     5     7   ar
     9     7     8    1
    10     7     9   ar
    11     9    14    1
    12    14    15   ar
    13    15    16   ar
    14    16    17   ar
    15    17    18   ar
    16    18    19   ar
    17    18    20    1
    18    20    21    1
    19    21    22    1
    20     9    10   ar
    21    10    11   ar
    22    11    12   ar
    23    12     1   ar
    24    11     4   ar
    25    19    14   ar
    26    22    17    1
    27     8    13    1
@<TRIPOS>MOLECULE
*****
 24 27 0 0 0
SMALL
GASTEIGER

@<TRIPOS>ATOM
      1 C          60.7456   88.8356    9.1837 C.ar    1  UNL1        0.1418
      2 C          60.7716   87.3634    9.4698 C.ar    1  UNL1        0.0372
      3 C          61.5670   86.8384   10.6281 C.ar    1  UNL1        0.0095
      4 C          62.3365   87.7856   11.5003 C.ar    1  UNL1        0.0768
      5 C          63.1319   87.2606   12.6586 C.ar    1  UNL1        0.2350
      6 O          63.1579   85.7884   12.9447 O.2     1  UNL1       -0.2831
      7 C          63.9013   88.2078   13.5308 C.ar    1  UNL1        0.2081
      8 O          64.6967   87.6828   14.6891 O.3     1  UNL1       -0.5007
      9 C          63.8753   89.6801   13.2447 C.ar    1  UNL1        0.1819
     10 O          63.0799   90.2051   12.0864 O.2     1  UNL1       -0.4501
     11 C          62.3105   89.2578   11.2141 C.ar    1  UNL1        0.1516
     12 C          61.5150   89.7828   10.0558 C.ar    1  UNL1        0.0744
     13 H          64.7129   86.7631   14.8678 H       1  UNL1        0.2924
     14 C          64.6448   90.6273   14.1168 C.ar    1  UNL1        0.0409
     15 C          64.0997   91.0238   15.4569 C.ar    1  UNL1        0.0065
     16 C          64.8692   91.9711   16.3291 C.ar    1  UNL1        0.0403
     17 C          66.1837   92.5217   15.8612 C.ar    1  UNL1        0.1764
     18 C          66.7287   92.1251   14.5212 C.ar    1  UNL1        0.1765
     19 C          65.9593   91.1780   13.6490 C.ar    1  UNL1        0.0433
     20 O          68.0415   92.8251   14.3292 O.3     1  UNL1       -0.4346
     21 C          68.3078   93.6542   15.5505 C.3     1  UNL1        0.4294
     22 O          67.1596   93.4667   16.4973 O.3     1  UNL1       -0.4346
     23 C          59.0819   88.4319    7.2294 C.3     1  UNL1        0.2525
     24 O          59.9502   89.3606    8.0253 O.3     1  UNL1       -0.4713
@<TRIPOS>BOND
     1    23    24    1
     2    24     1    1
     3     1     2   ar
     4     2     3   ar
     5     3     4   ar
     6     4     5   ar
     7     5     6    2
     8     5     7   ar
     9     7     8    1
    10     7     9   ar
    11     9    14    1
    12    14    15   ar
    13    15    16   ar
    14    16    17   ar
    15    17    18   ar
    16    18    19   ar
    17    18    20    1
    18    20    21    1
    19    21    22    1
    20     9    10   ar
    21    10    11   ar
    22    11    12   ar
    23    12     1   ar
    24    11     4   ar
    25    19    14   ar
    26    22    17    1
    27     8    13    1
@<TRIPOS>MOLECULE
*****
 24 27 0 0 0
SMALL
GASTEIGER

@<TRIPOS>ATOM
      1 C          62.4371   84.7307   11.6386 C.ar    1  UNL1        0.1418
      2 C          61.6333   85.2805   10.4978 C.ar    1  UNL1        0.0372
      3 C          61.5560   86.7626   10.2804 C.ar    1  UNL1        0.0095
      4 C          62.2826   87.6950   11.2038 C.ar    1  UNL1        0.0768
      5 C          62.2053   89.1771   10.9864 C.ar    1  UNL1        0.2350
      6 O          61.4015   89.7269    9.8455 O.2     1  UNL1       -0.2831
      7 C          62.9319   90.1095   11.9098 C.ar    1  UNL1        0.2081
      8 O          62.8547   91.5916   11.6924 O.3     1  UNL1       -0.5007
      9 C          63.7358   89.5597   13.0507 C.ar    1  UNL1        0.1819
     10 O          63.8131   88.0776   13.2681 O.2     1  UNL1       -0.4501
     11 C          63.0864   87.1452   12.3446 C.ar    1  UNL1        0.1516
     12 C          63.1637   85.6630   12.5620 C.ar    1  UNL1        0.0744
     13 H          62.3525   91.9351   10.9797 H       1  UNL1        0.2924
     14 C          64.4624   90.4921   13.9741 C.ar    1  UNL1        0.0409
     15 C          63.9062   90.7829   15.3365 C.ar    1  UNL1        0.0065
     16 C          64.6328   91.7153   16.2599 C.ar    1  UNL1        0.0403
     17 C          65.9156   92.3568   15.8209 C.ar    1  UNL1        0.1764
     18 C          66.4719   92.0660   14.4586 C.ar    1  UNL1        0.1765
     19 C          65.7453   91.1337   13.5352 C.ar    1  UNL1        0.0433
     20 O          67.7471   92.8404   14.3036 O.3     1  UNL1       -0.4346
     21 C          67.9791   93.6099   15.5702 C.3     1  UNL1        0.4294
     22 O          66.8472   93.3110   16.5079 O.3     1  UNL1       -0.4346
     23 C          63.7313   82.4887   11.4183 C.3     1  UNL1        0.2525
     24 O          62.5144   83.2485   11.8560 O.3     1  UNL1       -0.4713
@<TRIPOS>BOND
     1    23    24    1
     2    24     1    1
     3     1     2   ar
     4     2     3   ar
     5     3     4   ar
     6     4     5   ar
     7     5     6    2
     8     5     7   ar
     9     7     8    1
    10     7     9   ar
    11     9    14    1
    12    14    15   ar
    13    15    16   ar
    14    16    17   ar
    15    17    18   ar
    16    18    19   ar
    17    18    20    1
    18    20    21    1
    19    21    22    1
    20     9    10   ar
    21    10    11   ar
    22    11    12   ar
    23    12     1   ar
    24    11     4   ar
    25    19    14   ar
    26    22    17    1
    27     8    13    1
@<TRIPOS>MOLECULE
*****
 24 27 0 0 0
SMALL
GASTEIGER

@<TRIPOS>ATOM
      1 C          63.1271   82.8525   13.3139 C.ar    1  UNL1        0.1418
      2 C          62.6915   82.5885   14.7247 C.ar    1  UNL1        0.0372
      3 C          62.6585   83.7088   15.7216 C.ar    1  UNL1        0.0095
      4 C          63.0611   85.0932   15.3076 C.ar    1  UNL1        0.0768
      5 C          63.0281   86.2136   16.3045 C.ar    1  UNL1        0.2350
      6 O          62.5925   85.9495   17.7153 O.2     1  UNL1       -0.2831
      7 C          63.4306   87.5979   15.8905 C.ar    1  UNL1        0.2081
      8 O          63.3976   88.7183   16.8873 O.3     1  UNL1       -0.5007
      9 C          63.8661   87.8620   14.4795 C.ar    1  UNL1        0.1819
     10 O          63.8991   86.7417   13.4827 O.2     1  UNL1       -0.4501
     11 C          63.4966   85.3572   13.8967 C.ar    1  UNL1        0.1516
     12 C          63.5296   84.2369   12.8999 C.ar    1  UNL1        0.0744
     13 H          63.1255   88.5533   17.7687 H       1  UNL1        0.2924
     14 C          64.2687   89.2464   14.0655 C.ar    1  UNL1        0.0409
     15 C          63.6261   89.8890   12.8721 C.ar    1  UNL1        0.0065
     16 C          64.0287   91.2734   12.4582 C.ar    1  UNL1        0.0403
     17 C          65.0738   92.0152   13.2376 C.ar    1  UNL1        0.1764
     18 C          65.7163   91.3726   14.4310 C.ar    1  UNL1        0.1765
     19 C          65.3138   89.9882   14.8450 C.ar    1  UNL1        0.0433
     20 O          66.7098   92.3416   15.0004 O.3     1  UNL1       -0.4346
     21 C          66.6812   93.5830   14.1590 C.3     1  UNL1        0.4294
     22 O          65.6701   93.3813   13.0695 O.3     1  UNL1       -0.4346
     23 C          62.7312   80.3535   12.7237 C.3     1  UNL1        0.2525
     24 O          63.1601   81.7322   12.3170 O.3     1  UNL1       -0.4713
@<TRIPOS>BOND
     1    23    24    1
     2    24     1    1
     3     1     2   ar
     4     2     3   ar
     5     3     4   ar
     6     4     5   ar
     7     5     6    2
     8     5     7   ar
     9     7     8    1
    10     7     9   ar
    11     9    14    1
    12    14    15   ar
    13    15    16   ar
    14    16    17   ar
    15    17    18   ar
    16    18    19   ar
    17    18    20    1
    18    20    21    1
    19    21    22    1
    20     9    10   ar
    21    10    11   ar
    22    11    12   ar
    23    12     1   ar
    24    11     4   ar
    25    19    14   ar
    26    22    17    1
    27     8    13    1
@<TRIPOS>MOLECULE
*****
 24 27 0 0 0
SMALL
GASTEIGER

@<TRIPOS>ATOM
      1 C          64.7346   91.2961   14.1527 C.ar    1  UNL1        0.1418
      2 C          64.1763   91.7918   12.8518 C.ar    1  UNL1        0.0372
      3 C          63.4980   90.8373   11.9144 C.ar    1  UNL1        0.0095
      4 C          63.3780   89.3870   12.2780 C.ar    1  UNL1        0.0768
      5 C          62.6997   88.4324   11.3406 C.ar    1  UNL1        0.2350
      6 O          62.1414   88.9281   10.0396 O.2     1  UNL1       -0.2831
      7 C          62.5796   86.9822   11.7042 C.ar    1  UNL1        0.2081
      8 O          61.9013   86.0276   10.7668 O.3     1  UNL1       -0.5007
      9 C          63.1379   86.4864   13.0052 C.ar    1  UNL1        0.1819
     10 O          63.8162   87.4409   13.9426 O.2     1  UNL1       -0.4501
     11 C          63.9362   88.8913   13.5789 C.ar    1  UNL1        0.1516
     12 C          64.6145   89.8459   14.5163 C.ar    1  UNL1        0.0744
     13 H          61.5526   86.3373    9.9541 H       1  UNL1        0.2924
     14 C          63.0178   85.0361   13.3688 C.ar    1  UNL1        0.0409
     15 C          62.9626   84.6265   14.8107 C.ar    1  UNL1        0.0065
     16 C          62.8425   83.1761   15.1743 C.ar    1  UNL1        0.0403
     17 C          62.7777   82.1355   14.0959 C.ar    1  UNL1        0.1764
     18 C          62.8330   82.5451   12.6540 C.ar    1  UNL1        0.1765
     19 C          62.9530   83.9954   12.2904 C.ar    1  UNL1        0.0433
     20 O          62.7485   81.3039   11.8160 O.3     1  UNL1       -0.4346
     21 C          62.6411   80.1271   12.7399 C.3     1  UNL1        0.4294
     22 O          62.6591   80.6411   14.1490 O.3     1  UNL1       -0.4346
     23 C          66.8238   92.6861   14.8260 C.3     1  UNL1        0.2525
     24 O          65.4129   92.2507   15.0901 O.3     1  UNL1       -0.4713
@<TRIPOS>BOND
     1    23    24    1
     2    24     1    1
     3     1     2   ar
     4     2     3   ar
     5     3     4   ar
     6     4     5   ar
     7     5     6    2
     8     5     7   ar
     9     7     8    1
    10     7     9   ar
    11     9    14    1
    12    14    15   ar
    13    15    16   ar
    14    16    17   ar
    15    17    18   ar
    16    18    19   ar
    17    18    20    1
    18    20    21    1
    19    21    22    1
    20     9    10   ar
    21    10    11   ar
    22    11    12   ar
    23    12     1   ar
    24    11     4   ar
    25    19    14   ar
    26    22    17    1
    27     8    13    1
@<TRIPOS>MOLECULE
*****
 24 27 0 0 0
SMALL
GASTEIGER

@<TRIPOS>ATOM
      1 C          63.6212   84.3460   14.7852 C.ar    1  UNL1        0.1418
      2 C          63.2744   84.6246   16.2177 C.ar    1  UNL1        0.0372
      3 C          63.2121   86.0392   16.7128 C.ar    1  UNL1        0.0095
      4 C          63.4964   87.1751   15.7754 C.ar    1  UNL1        0.0768
      5 C          63.4341   88.5897   16.2706 C.ar    1  UNL1        0.2350
      6 O          63.0873   88.8683   17.7031 O.2     1  UNL1       -0.2831
      7 C          63.7184   89.7256   15.3332 C.ar    1  UNL1        0.2081
      8 O          63.6561   91.1402   15.8283 O.3     1  UNL1       -0.5007
      9 C          64.0652   89.4470   13.9006 C.ar    1  UNL1        0.1819
     10 O          64.1276   88.0325   13.4055 O.2     1  UNL1       -0.4501
     11 C          63.8432   86.8965   14.3429 C.ar    1  UNL1        0.1516
     12 C          63.9055   85.4819   13.8478 C.ar    1  UNL1        0.0744
     13 H          63.4395   91.3142   16.7232 H       1  UNL1        0.2924
     14 C          64.3496   90.5830   12.9632 C.ar    1  UNL1        0.0409
     15 C          63.6063   90.6877   11.6646 C.ar    1  UNL1        0.0065
     16 C          63.8907   91.8238   10.7272 C.ar    1  UNL1        0.0403
     17 C          64.9183   92.8549   11.0885 C.ar    1  UNL1        0.1764
     18 C          65.6616   92.7502   12.3871 C.ar    1  UNL1        0.1765
     19 C          65.3772   91.6142   13.3245 C.ar    1  UNL1        0.0433
     20 O          66.6117   93.9078   12.4721 O.3     1  UNL1       -0.4346
     21 C          66.4557   94.7280   11.2260 C.3     1  UNL1        0.4294
     22 O          65.4091   94.0773   10.3708 O.3     1  UNL1       -0.4346
     23 C          62.4286   82.1161   14.1894 C.3     1  UNL1        0.2525
     24 O          63.6835   82.9315   14.2901 O.3     1  UNL1       -0.4713
@<TRIPOS>BOND
     1    23    24    1
     2    24     1    1
     3     1     2   ar
     4     2     3   ar
     5     3     4   ar
     6     4     5   ar
     7     5     6    2
     8     5     7   ar
     9     7     8    1
    10     7     9   ar
    11     9    14    1
    12    14    15   ar
    13    15    16   ar
    14    16    17   ar
    15    17    18   ar
    16    18    19   ar
    17    18    20    1
    18    20    21    1
    19    21    22    1
    20     9    10   ar
    21    10    11   ar
    22    11    12   ar
    23    12     1   ar
    24    11     4   ar
    25    19    14   ar
    26    22    17    1
    27     8    13    1
@<TRIPOS>MOLECULE
*****
 24 27 0 0 0
SMALL
GASTEIGER

@<TRIPOS>ATOM
      1 C          63.0899   81.1790   11.0540 C.ar    1  UNL1        0.1418
      2 C          62.8886   80.5395   12.3958 C.ar    1  UNL1        0.0372
      3 C          62.8592   81.3864   13.6335 C.ar    1  UNL1        0.0095
      4 C          63.0311   82.8728   13.5294 C.ar    1  UNL1        0.0768
      5 C          63.0018   83.7198   14.7671 C.ar    1  UNL1        0.2350
      6 O          62.8005   83.0802   16.1089 O.2     1  UNL1       -0.2831
      7 C          63.1737   85.2062   14.6630 C.ar    1  UNL1        0.2081
      8 O          63.1443   86.0531   15.9007 O.3     1  UNL1       -0.5007
      9 C          63.3749   85.8458   13.3211 C.ar    1  UNL1        0.1819
     10 O          63.4043   84.9989   12.0834 O.2     1  UNL1       -0.4501
     11 C          63.2324   83.5123   12.1876 C.ar    1  UNL1        0.1516
     12 C          63.2618   82.6654   10.9499 C.ar    1  UNL1        0.0744
     13 H          63.0186   85.6536   16.7388 H       1  UNL1        0.2924
     14 C          63.5468   87.3322   13.2170 C.ar    1  UNL1        0.0409
     15 C          62.9154   88.0826   12.0820 C.ar    1  UNL1        0.0065
     16 C          63.0873   89.5691   11.9780 C.ar    1  UNL1        0.0403
     17 C          63.8907   90.3052   13.0088 C.ar    1  UNL1        0.1764
     18 C          64.5222   89.5548   14.1438 C.ar    1  UNL1        0.1765
     19 C          64.3503   88.0684   14.2479 C.ar    1  UNL1        0.0433
     20 O          65.2529   90.5434   15.0034 O.3     1  UNL1       -0.4346
     21 C          65.0730   91.9047   14.3997 C.3     1  UNL1        0.4294
     22 O          64.2311   91.7575   13.1670 O.3     1  UNL1       -0.4346
     23 C          62.7415   78.8823    9.8905 C.3     1  UNL1        0.2525
     24 O          63.1192   80.3320    9.8164 O.3     1  UNL1       -0.4713
@<TRIPOS>BOND
     1    23    24    1
     2    24     1    1
     3     1     2   ar
     4     2     3   ar
     5     3     4   ar
     6     4     5   ar
     7     5     6    2
     8     5     7   ar
     9     7     8    1
    10     7     9   ar
    11     9    14    1
    12    14    15   ar
    13    15    16   ar
    14    16    17   ar
    15    17    18   ar
    16    18    19   ar
    17    18    20    1
    18    20    21    1
    19    21    22    1
    20     9    10   ar
    21    10    11   ar
    22    11    12   ar
    23    12     1   ar
    24    11     4   ar
    25    19    14   ar
    26    22    17    1
    27     8    13    1
