@<TRIPOS>MOLECULE
*****
 34 37 0 0 0
SMALL
GASTEIGER

@<TRIPOS>ATOM
      1 C          62.0902   86.7015   11.2666 C.ar    1  UNL1        0.0522
      2 C          63.0977   87.6637   11.8223 C.ar    1  UNL1        0.0167
      3 C          62.8866   89.1412   11.6714 C.ar    1  UNL1        0.0505
      4 C          61.6678   89.6562   10.9648 C.ar    1  UNL1        0.0170
      5 C          60.6602   88.6939   10.4090 C.ar    1  UNL1        0.0307
      6 C          60.8715   87.2165   10.5600 C.ar    1  UNL1        0.1401
      7 F          59.8639   86.2542   10.0043 F       1  UNL1       -0.2044
      8 C          62.2101   85.3229    9.9235 C.3     1  UNL1        0.0601
      9 C          62.3013   85.2241   11.4175 C.3     1  UNL1        0.2163
     10 C          62.4808   83.7810   11.0494 C.3     1  UNL1        0.1614
     11 N          62.6781   82.7522   12.1230 N.ar    1  UNL1       -0.2929
     12 C          62.8795   81.2669   12.0650 C.ar    1  UNL1        0.1503
     13 C          63.0219   80.7632   13.4707 C.ar    1  UNL1        0.1285
     14 N          62.9085   81.9372   14.3975 N.ar    1  UNL1       -0.2180
     15 C          62.6961   83.1664   13.5646 C.ar    1  UNL1        0.2279
     16 C          62.5166   84.6095   13.9326 C.2     1  UNL1        0.3476
     17 N          62.5346   85.0237   15.3741 N.pl3   1  UNL1       -0.2439
     18 N          62.3193   85.6383   12.8590 N.2     1  UNL1       -0.0653
     19 H          62.6641   84.3485   16.0788 H       1  UNL1        0.2885
     20 H          62.4168   85.9709   15.6156 H       1  UNL1        0.2885
     21 C          62.9297   80.4320   10.8198 C.1     1  UNL1        0.1196
     22 N          62.9799   79.5970    9.5747 N.1     1  UNL1       -0.1893
     23 N          63.8942   90.1034   12.2271 N.am    1  UNL1       -0.2791
     24 C          64.1789   90.1240   13.6997 C.2     1  UNL1        0.2672
     25 O          63.4560   89.1824   14.6166 O.2     1  UNL1       -0.2682
     26 H          64.3686   90.7214   11.6253 H       1  UNL1        0.1552
     27 C          65.1865   91.0863   14.2554 C.ar    1  UNL1        0.1348
     28 C          66.4066   91.4387   13.4572 C.ar    1  UNL1        0.0245
     29 C          67.4142   92.4010   14.0129 C.ar    1  UNL1        0.0135
     30 C          67.2017   93.0108   15.3668 C.ar    1  UNL1        0.0876
     31 C          65.9816   92.6583   16.1649 C.ar    1  UNL1        0.1092
     32 N          64.9739   91.6961   15.6093 N.ar    1  UNL1       -0.2385
     33 C          68.2093   93.9731   15.9225 C.1     1  UNL1        0.1020
     34 N          69.2169   94.9353   16.4781 N.1     1  UNL1       -0.1908
@<TRIPOS>BOND
     1     9     8    1
     2     9     1    1
     3     1     2   ar
     4     2     3   ar
     5     3    23    1
     6    23    24   am
     7    24    25    2
     8    24    27    1
     9    27    28   ar
    10    28    29   ar
    11    29    30   ar
    12    30    33    1
    13    33    34    3
    14    30    31   ar
    15    31    32   ar
    16     3     4   ar
    17     4     5   ar
    18     5     6   ar
    19     6     7    1
    20     9    10    1
    21    10    11    1
    22    11    12   ar
    23    12    21    1
    24    21    22    3
    25    12    13   ar
    26    13    14   ar
    27    14    15   ar
    28    15    16    1
    29    16    17    1
    30    16    18    2
    31    18     9    1
    32     6     1   ar
    33    15    11   ar
    34    32    27   ar
    35    23    26    1
    36    17    19    1
    37    17    20    1
@<TRIPOS>MOLECULE
*****
 34 37 0 0 0
SMALL
GASTEIGER

@<TRIPOS>ATOM
      1 C          62.0974   89.7488   11.4929 C.ar    1  UNL1        0.0522
      2 C          62.3303   88.2873   11.2489 C.ar    1  UNL1        0.0167
      3 C          61.1647   87.3671   11.0373 C.ar    1  UNL1        0.0505
      4 C          59.7662   87.9086   11.0696 C.ar    1  UNL1        0.0170
      5 C          59.5333   89.3703   11.3136 C.ar    1  UNL1        0.0307
      6 C          60.6990   90.2903   11.5252 C.ar    1  UNL1        0.1401
      7 F          60.4661   91.7519   11.7692 F       1  UNL1       -0.2044
      8 C          63.1285   90.7578   10.2132 C.3     1  UNL1        0.0601
      9 C          63.2630   90.6690   11.7045 C.3     1  UNL1        0.2163
     10 C          64.3818   91.6200   11.3982 C.3     1  UNL1        0.1614
     11 N          65.2304   92.1627   12.5097 N.ar    1  UNL1       -0.2929
     12 C          66.3942   93.1090   12.5136 C.ar    1  UNL1        0.1503
     13 C          66.8432   93.2855   13.9339 C.ar    1  UNL1        0.1285
     14 N          65.9569   92.4483   14.8077 N.ar    1  UNL1       -0.2180
     15 C          64.9601   91.7543   13.9275 C.ar    1  UNL1        0.2279
     16 C          63.8413   90.8033   14.2338 C.2     1  UNL1        0.3476
     17 N          63.5710   90.3950   15.6516 N.pl3   1  UNL1       -0.2439
     18 N          62.9927   90.2607   13.1223 N.2     1  UNL1       -0.0653
     19 H          64.1279   90.7512   16.3812 H       1  UNL1        0.2885
     20 H          62.8367   89.7708   15.8527 H       1  UNL1        0.2885
     21 C          67.0022   93.7638   11.3088 C.1     1  UNL1        0.1196
     22 N          67.6103   94.4187   10.1041 N.1     1  UNL1       -0.1893
     23 N          61.3976   85.9056   10.7933 N.am    1  UNL1       -0.2791
     24 C          62.2587   85.1160   11.7342 C.2     1  UNL1        0.2672
     25 O          62.8868   85.7880   12.9190 O.2     1  UNL1       -0.2682
     26 H          60.9854   85.4645   10.0157 H       1  UNL1        0.1552
     27 C          62.4916   83.6543   11.4902 C.ar    1  UNL1        0.1348
     28 C          63.1719   83.2032   10.2318 C.ar    1  UNL1        0.0245
     29 C          63.4048   81.7416    9.9878 C.ar    1  UNL1        0.0135
     30 C          62.9574   80.7312   11.0022 C.ar    1  UNL1        0.0876
     31 C          62.2771   81.1825   12.2606 C.ar    1  UNL1        0.1092
     32 N          62.0442   82.6440   12.5046 N.ar    1  UNL1       -0.2385
     33 C          63.1903   79.2696   10.7582 C.1     1  UNL1        0.1020
     34 N          63.4232   77.8081   10.5142 N.1     1  UNL1       -0.1908
@<TRIPOS>BOND
     1     9     8    1
     2     9     1    1
     3     1     2   ar
     4     2     3   ar
     5     3    23    1
     6    23    24   am
     7    24    25    2
     8    24    27    1
     9    27    28   ar
    10    28    29   ar
    11    29    30   ar
    12    30    33    1
    13    33    34    3
    14    30    31   ar
    15    31    32   ar
    16     3     4   ar
    17     4     5   ar
    18     5     6   ar
    19     6     7    1
    20     9    10    1
    21    10    11    1
    22    11    12   ar
    23    12    21    1
    24    21    22    3
    25    12    13   ar
    26    13    14   ar
    27    14    15   ar
    28    15    16    1
    29    16    17    1
    30    16    18    2
    31    18     9    1
    32     6     1   ar
    33    15    11   ar
    34    32    27   ar
    35    23    26    1
    36    17    19    1
    37    17    20    1
@<TRIPOS>MOLECULE
*****
 34 37 0 0 0
SMALL
GASTEIGER

@<TRIPOS>ATOM
      1 C          63.8396   88.5082   14.9450 C.ar    1  UNL1        0.0522
      2 C          63.8576   87.1302   14.3528 C.ar    1  UNL1        0.0167
      3 C          63.4966   85.9454   15.1991 C.ar    1  UNL1        0.0505
      4 C          63.1178   86.1388   16.6375 C.ar    1  UNL1        0.0170
      5 C          63.0998   87.5169   17.2297 C.ar    1  UNL1        0.0307
      6 C          63.4608   88.7016   16.3833 C.ar    1  UNL1        0.1401
      7 F          63.4428   90.0797   16.9755 F       1  UNL1       -0.2044
      8 C          64.9856   90.0088   15.3373 C.3     1  UNL1        0.0601
      9 C          64.2005   89.6930   14.0987 C.3     1  UNL1        0.2163
     10 C          64.8341   90.9875   13.6827 C.3     1  UNL1        0.1614
     11 N          64.5574   91.5546   12.3219 N.ar    1  UNL1       -0.2929
     12 C          65.0346   92.8016   11.6382 C.ar    1  UNL1        0.1503
     13 C          64.4192   92.8450   10.2710 C.ar    1  UNL1        0.1285
     14 N          63.5616   91.6249   10.1096 N.ar    1  UNL1       -0.2180
     15 C          63.6470   90.8274   11.3772 C.ar    1  UNL1        0.2279
     16 C          63.0135   89.5330   11.7933 C.2     1  UNL1        0.3476
     17 N          62.1031   88.8058   10.8486 N.pl3   1  UNL1       -0.2439
     18 N          63.2903   88.9658   13.1540 N.2     1  UNL1       -0.0653
     19 H          61.9215   89.1780    9.9555 H       1  UNL1        0.2885
     20 H          61.6873   87.9562   11.1217 H       1  UNL1        0.2885
     21 C          65.9640   93.8253   12.2197 C.1     1  UNL1        0.1196
     22 N          66.8935   94.8491   12.8011 N.1     1  UNL1       -0.1893
     23 N          63.5146   84.5675   14.6069 N.am    1  UNL1       -0.2791
     24 C          62.8090   84.2988   13.3107 C.2     1  UNL1        0.2672
     25 O          62.0855   85.4082   12.6067 O.2     1  UNL1       -0.2682
     26 H          63.9895   83.8393   15.0690 H       1  UNL1        0.1552
     27 C          62.8270   82.9207   12.7186 C.ar    1  UNL1        0.1348
     28 C          63.2344   82.7243   11.2885 C.ar    1  UNL1        0.0245
     29 C          63.2524   81.3462   10.6963 C.ar    1  UNL1        0.0135
     30 C          62.8630   80.1647   11.5343 C.ar    1  UNL1        0.0876
     31 C          62.4555   80.3612   12.9645 C.ar    1  UNL1        0.1092
     32 N          62.4375   81.7392   13.5567 N.ar    1  UNL1       -0.2385
     33 C          62.8809   78.7866   10.9422 C.1     1  UNL1        0.1020
     34 N          62.8989   77.4086   10.3500 N.1     1  UNL1       -0.1908
@<TRIPOS>BOND
     1     9     8    1
     2     9     1    1
     3     1     2   ar
     4     2     3   ar
     5     3    23    1
     6    23    24   am
     7    24    25    2
     8    24    27    1
     9    27    28   ar
    10    28    29   ar
    11    29    30   ar
    12    30    33    1
    13    33    34    3
    14    30    31   ar
    15    31    32   ar
    16     3     4   ar
    17     4     5   ar
    18     5     6   ar
    19     6     7    1
    20     9    10    1
    21    10    11    1
    22    11    12   ar
    23    12    21    1
    24    21    22    3
    25    12    13   ar
    26    13    14   ar
    27    14    15   ar
    28    15    16    1
    29    16    17    1
    30    16    18    2
    31    18     9    1
    32     6     1   ar
    33    15    11   ar
    34    32    27   ar
    35    23    26    1
    36    17    19    1
    37    17    20    1
@<TRIPOS>MOLECULE
*****
 34 37 0 0 0
SMALL
GASTEIGER

@<TRIPOS>ATOM
      1 C          62.8230   85.8082   12.5854 C.ar    1  UNL1        0.0522
      2 C          63.6688   86.9704   13.0139 C.ar    1  UNL1        0.0167
      3 C          64.2967   86.9792   14.3762 C.ar    1  UNL1        0.0505
      4 C          64.0786   85.8257   15.3099 C.ar    1  UNL1        0.0170
      5 C          63.2327   84.6634   14.8814 C.ar    1  UNL1        0.0307
      6 C          62.6049   84.6547   13.5190 C.ar    1  UNL1        0.1401
      7 F          61.7590   83.4924   13.0905 F       1  UNL1       -0.2044
      8 C          63.1686   84.6686   11.0685 C.3     1  UNL1        0.0601
      9 C          62.1951   85.7994   11.2231 C.3     1  UNL1        0.2163
     10 C          61.9054   85.3978    9.8071 C.3     1  UNL1        0.1614
     11 N          60.8603   86.1301    9.0188 N.ar    1  UNL1       -0.2929
     12 C          60.3608   85.9613    7.6145 C.ar    1  UNL1        0.1503
     13 C          59.2966   86.9908    7.3743 C.ar    1  UNL1        0.1285
     14 N          59.1384   87.7958    8.6300 N.ar    1  UNL1       -0.2180
     15 C          60.1048   87.2639    9.6464 C.ar    1  UNL1        0.2279
     16 C          60.3946   87.6654   11.0623 C.2     1  UNL1        0.3476
     17 N          59.6392   88.7991   11.6900 N.pl3   1  UNL1       -0.2439
     18 N          61.4397   86.9331   11.8506 N.2     1  UNL1       -0.0653
     19 H          58.9532   89.2797   11.1726 H       1  UNL1        0.2885
     20 H          59.8293   89.0626   12.6193 H       1  UNL1        0.2885
     21 C          60.8411   84.9421    6.6244 C.1     1  UNL1        0.1196
     22 N          61.3214   83.9228    5.6342 N.1     1  UNL1       -0.1893
     23 N          65.1425   88.1415   14.8047 N.am    1  UNL1       -0.2791
     24 C          64.8206   89.5233   14.3178 C.2     1  UNL1        0.2672
     25 O          63.6527   89.7428   13.4025 O.2     1  UNL1       -0.2682
     26 H          65.9090   87.9974   15.4055 H       1  UNL1        0.1552
     27 C          65.6665   90.6855   14.7464 C.ar    1  UNL1        0.1348
     28 C          67.0575   90.8398   14.2070 C.ar    1  UNL1        0.0245
     29 C          67.9034   92.0021   14.6355 C.ar    1  UNL1        0.0135
     30 C          67.3582   93.0100   15.6034 C.ar    1  UNL1        0.0876
     31 C          65.9670   92.8556   16.1427 C.ar    1  UNL1        0.1092
     32 N          65.1211   91.6934   15.7143 N.ar    1  UNL1       -0.2385
     33 C          68.2041   94.1723   16.0319 C.1     1  UNL1        0.1020
     34 N          69.0500   95.3345   16.4604 N.1     1  UNL1       -0.1908
@<TRIPOS>BOND
     1     9     8    1
     2     9     1    1
     3     1     2   ar
     4     2     3   ar
     5     3    23    1
     6    23    24   am
     7    24    25    2
     8    24    27    1
     9    27    28   ar
    10    28    29   ar
    11    29    30   ar
    12    30    33    1
    13    33    34    3
    14    30    31   ar
    15    31    32   ar
    16     3     4   ar
    17     4     5   ar
    18     5     6   ar
    19     6     7    1
    20     9    10    1
    21    10    11    1
    22    11    12   ar
    23    12    21    1
    24    21    22    3
    25    12    13   ar
    26    13    14   ar
    27    14    15   ar
    28    15    16    1
    29    16    17    1
    30    16    18    2
    31    18     9    1
    32     6     1   ar
    33    15    11   ar
    34    32    27   ar
    35    23    26    1
    36    17    19    1
    37    17    20    1
@<TRIPOS>MOLECULE
*****
 34 37 0 0 0
SMALL
GASTEIGER

@<TRIPOS>ATOM
      1 C          64.1384   89.5082   14.7107 C.ar    1  UNL1        0.0522
      2 C          64.1729   88.1513   14.0724 C.ar    1  UNL1        0.0167
      3 C          63.6738   86.9547   14.8269 C.ar    1  UNL1        0.0505
      4 C          63.1401   87.1152   16.2195 C.ar    1  UNL1        0.0170
      5 C          63.1056   88.4723   16.8577 C.ar    1  UNL1        0.0307
      6 C          63.6047   89.6688   16.1032 C.ar    1  UNL1        0.1401
      7 F          63.5702   91.0258   16.7414 F       1  UNL1       -0.2044
      8 C          63.9634   89.9580   12.8436 C.3     1  UNL1        0.0601
      9 C          64.6375   90.7048   13.9562 C.3     1  UNL1        0.2163
     10 C          64.9025   91.6420   12.8153 C.3     1  UNL1        0.1614
     11 N          65.6682   92.9105   13.0491 N.ar    1  UNL1       -0.2929
     12 C          66.0794   94.0192   12.1262 C.ar    1  UNL1        0.1503
     13 C          66.8343   95.0356   12.9305 C.ar    1  UNL1        0.1285
     14 N          66.8897   94.5552   14.3504 N.ar    1  UNL1       -0.2180
     15 C          66.1690   93.2417   14.4237 C.ar    1  UNL1        0.2279
     16 C          65.9040   92.3045   15.5645 C.2     1  UNL1        0.3476
     17 N          66.4048   92.6358   16.9391 N.pl3   1  UNL1       -0.2439
     18 N          65.1382   91.0361   15.3307 N.2     1  UNL1       -0.0653
     19 H          66.9074   93.4683   17.0925 H       1  UNL1        0.2885
     20 H          66.2309   92.0207   17.6879 H       1  UNL1        0.2885
     21 C          65.7870   94.0976   10.6571 C.1     1  UNL1        0.1196
     22 N          65.4947   94.1760    9.1880 N.1     1  UNL1       -0.1893
     23 N          63.7083   85.5977   14.1887 N.am    1  UNL1       -0.2791
     24 C          63.0214   85.3690   12.8749 C.2     1  UNL1        0.2672
     25 O          62.2999   86.4973   12.1994 O.2     1  UNL1       -0.2682
     26 H          64.1819   84.8572   14.6320 H       1  UNL1        0.1552
     27 C          63.0560   84.0119   12.2367 C.ar    1  UNL1        0.1348
     28 C          63.6743   83.8361   10.8815 C.ar    1  UNL1        0.0245
     29 C          63.7089   82.4790   10.2433 C.ar    1  UNL1        0.0135
     30 C          63.1252   81.2979   10.9604 C.ar    1  UNL1        0.0876
     31 C          62.5069   81.4739   12.3156 C.ar    1  UNL1        0.1092
     32 N          62.4722   82.8308   12.9539 N.ar    1  UNL1       -0.2385
     33 C          63.1598   79.9409   10.3221 C.1     1  UNL1        0.1020
     34 N          63.1944   78.5839    9.6840 N.1     1  UNL1       -0.1908
@<TRIPOS>BOND
     1     9     8    1
     2     9     1    1
     3     1     2   ar
     4     2     3   ar
     5     3    23    1
     6    23    24   am
     7    24    25    2
     8    24    27    1
     9    27    28   ar
    10    28    29   ar
    11    29    30   ar
    12    30    33    1
    13    33    34    3
    14    30    31   ar
    15    31    32   ar
    16     3     4   ar
    17     4     5   ar
    18     5     6   ar
    19     6     7    1
    20     9    10    1
    21    10    11    1
    22    11    12   ar
    23    12    21    1
    24    21    22    3
    25    12    13   ar
    26    13    14   ar
    27    14    15   ar
    28    15    16    1
    29    16    17    1
    30    16    18    2
    31    18     9    1
    32     6     1   ar
    33    15    11   ar
    34    32    27   ar
    35    23    26    1
    36    17    19    1
    37    17    20    1
