@<TRIPOS>MOLECULE
*****
 35 39 0 0 0
SMALL
GASTEIGER

@<TRIPOS>ATOM
      1 C          61.8286   88.8279   10.4794 C.ar    1  UNL1        0.0375
      2 C          62.2488   90.2637   10.5886 C.ar    1  UNL1        0.0179
      3 C          62.9369   90.4460   11.9090 C.ar    1  UNL1        0.0657
      4 N          62.9420   89.1229   12.6157 N.ar    1  UNL1       -0.2630
      5 C          62.2570   88.1228   11.7321 C.ar    1  UNL1        0.0854
      6 C          63.6301   89.3053   13.9360 C.2     1  UNL1        0.3236
      7 O          63.8580   88.2391   14.9662 O.2     1  UNL1       -0.2489
      8 N          64.0503   90.7412   14.0453 N.am    1  UNL1       -0.2514
      9 C          63.6218   91.4461   12.7925 C.3     1  UNL1        0.1398
     10 C          59.3869   88.3878    7.3818 C.ar    1  UNL1        0.2218
     11 N          59.6630   86.9628    7.0034 N.ar    1  UNL1       -0.2111
     12 C          60.6610   86.1596    7.7837 C.ar    1  UNL1        0.1147
     13 C          61.3829   86.7812    8.9423 C.ar    1  UNL1        0.0945
     14 CL         62.3808   85.9779    9.7225 Cl      1  UNL1       -0.0790
     15 C          61.1068   88.2062    9.3207 C.ar    1  UNL1        0.0977
     16 N          60.1088   89.0094    8.5405 N.ar    1  UNL1       -0.2126
     17 N          58.3890   89.1911    6.6017 N.pl3   1  UNL1       -0.2681
     18 H          57.4293   88.9810    6.6664 H       1  UNL1        0.1565
     19 C          56.4734   91.3285    5.0487 C.3     1  UNL1        0.1552
     20 N          57.9725   91.2971    5.0091 N.ar    1  UNL1       -0.2355
     21 N          58.8544   92.2427    4.2486 N.ar    1  UNL1       -0.1665
     22 C          60.2799   91.8446    4.4925 C.ar    1  UNL1        0.1230
     23 C          60.2791   90.6531    5.4036 C.ar    1  UNL1        0.0565
     24 C          58.8530   90.3147    5.7229 C.ar    1  UNL1        0.1328
     25 C          64.7721   91.3628   15.2039 C.3     1  UNL1        0.1292
     26 C          66.1934   91.8157   15.0464 C.ar    1  UNL1       -0.0009
     27 C          66.8542   92.6054   16.1371 C.ar    1  UNL1       -0.0025
     28 C          68.2755   93.0583   15.9796 C.ar    1  UNL1        0.0006
     29 C          69.0360   92.7214   14.7314 C.ar    1  UNL1        0.0114
     30 C          68.3752   91.9317   13.6407 C.ar    1  UNL1        0.0574
     31 CL         69.1357   91.5948   12.3924 Cl      1  UNL1       -0.0823
     32 C          66.9539   91.4788   13.7982 C.ar    1  UNL1        0.0088
     33 C          64.0727   91.5316   16.5201 C.3     1  UNL1        0.1614
     34 O          63.1207   90.4783   17.0041 O.3     1  UNL1       -0.3799
     35 H          62.3510   90.4426   16.4148 H       1  UNL1        0.2105
@<TRIPOS>BOND
     1    19    20    1
     2    20    21   ar
     3    21    22   ar
     4    22    23   ar
     5    23    24   ar
     6    24    17    1
     7    17    10    1
     8    10    11   ar
     9    11    12   ar
    10    12    13   ar
    11    13    14    1
    12    13    15   ar
    13    15     1    1
    14     1     2   ar
    15     2     3   ar
    16     3     4   ar
    17     4     5   ar
    18     4     6   am
    19     6     7    2
    20     6     8   am
    21     8    25    1
    22    25    33    1
    23    33    34    1
    24    25    26    1
    25    26    27   ar
    26    27    28   ar
    27    28    29   ar
    28    29    30   ar
    29    30    31    1
    30    30    32   ar
    31     8     9    1
    32    15    16   ar
    33    24    20   ar
    34    16    10   ar
    35     5     1   ar
    36    32    26   ar
    37     9     3    1
    38    17    18    1
    39    34    35    1
@<TRIPOS>MOLECULE
*****
 35 39 0 0 0
SMALL
GASTEIGER

@<TRIPOS>ATOM
      1 C          64.5622   89.3864   14.5237 C.ar    1  UNL1        0.0375
      2 C          63.9170   89.9707   13.3021 C.ar    1  UNL1        0.0179
      3 C          64.6565   91.2252   12.9425 C.ar    1  UNL1        0.0657
      4 N          65.7587   91.4162   13.9419 N.ar    1  UNL1       -0.2630
      5 C          65.7004   90.2797   14.9191 C.ar    1  UNL1        0.0854
      6 C          66.4982   92.6708   13.5824 C.2     1  UNL1        0.3236
      7 O          67.6760   93.2409   14.3157 O.2     1  UNL1       -0.2489
      8 N          65.8531   93.2552   12.3607 N.am    1  UNL1       -0.2514
      9 C          64.7148   92.3617   11.9653 C.3     1  UNL1        0.1398
     10 C          64.1521   85.5368   15.3974 C.ar    1  UNL1        0.2218
     11 N          63.3040   85.6151   16.6321 N.ar    1  UNL1       -0.2111
     12 C          62.8752   86.9505   17.1640 C.ar    1  UNL1        0.1147
     13 C          63.2946   88.2076   16.4612 C.ar    1  UNL1        0.0945
     14 CL         62.8658   89.5430   16.9932 Cl      1  UNL1       -0.0790
     15 C          64.1428   88.1293   15.2265 C.ar    1  UNL1        0.0977
     16 N          64.5715   86.7939   14.6946 N.ar    1  UNL1       -0.2126
     17 N          64.5809   84.2015   14.8654 N.pl3   1  UNL1       -0.2681
     18 H          65.5274   83.9344   14.9108 H       1  UNL1        0.1565
     19 C          64.3943   83.3405   11.7233 C.3     1  UNL1        0.1552
     20 N          63.4819   82.8773   12.8201 N.ar    1  UNL1       -0.2355
     21 N          62.3235   81.9370   12.6651 N.ar    1  UNL1       -0.1665
     22 C          61.6933   81.7516   14.0137 C.ar    1  UNL1        0.1230
     23 C          62.4623   82.5773   15.0020 C.ar    1  UNL1        0.0565
     24 C          63.5676   83.2730   14.2643 C.ar    1  UNL1        0.1328
     25 C          66.2725   94.5121   11.6580 C.3     1  UNL1        0.1292
     26 C          66.8821   94.4386   10.2893 C.ar    1  UNL1       -0.0009
     27 C          66.6656   95.5546    9.3109 C.ar    1  UNL1       -0.0025
     28 C          67.2752   95.4810    7.9423 C.ar    1  UNL1        0.0006
     29 C          68.1015   94.2914    7.5523 C.ar    1  UNL1        0.0114
     30 C          68.3180   93.1753    8.5308 C.ar    1  UNL1        0.0574
     31 CL         69.1442   91.9857    8.1409 Cl      1  UNL1       -0.0823
     32 C          67.7083   93.2489    9.8994 C.ar    1  UNL1        0.0088
     33 C          66.0823   95.8428   12.3237 C.3     1  UNL1        0.1614
     34 O          65.1516   96.8551   11.7244 O.3     1  UNL1       -0.3799
     35 H          65.5019   97.1501   10.8694 H       1  UNL1        0.2105
@<TRIPOS>BOND
     1    19    20    1
     2    20    21   ar
     3    21    22   ar
     4    22    23   ar
     5    23    24   ar
     6    24    17    1
     7    17    10    1
     8    10    11   ar
     9    11    12   ar
    10    12    13   ar
    11    13    14    1
    12    13    15   ar
    13    15     1    1
    14     1     2   ar
    15     2     3   ar
    16     3     4   ar
    17     4     5   ar
    18     4     6   am
    19     6     7    2
    20     6     8   am
    21     8    25    1
    22    25    33    1
    23    33    34    1
    24    25    26    1
    25    26    27   ar
    26    27    28   ar
    27    28    29   ar
    28    29    30   ar
    29    30    31    1
    30    30    32   ar
    31     8     9    1
    32    15    16   ar
    33    24    20   ar
    34    16    10   ar
    35     5     1   ar
    36    32    26   ar
    37     9     3    1
    38    17    18    1
    39    34    35    1
@<TRIPOS>MOLECULE
*****
 35 39 0 0 0
SMALL
GASTEIGER

@<TRIPOS>ATOM
      1 C          64.8829   90.4780   13.4488 C.ar    1  UNL1        0.0375
      2 C          65.2534   89.6284   14.6282 C.ar    1  UNL1        0.0179
      3 C          64.5725   88.3007   14.4751 C.ar    1  UNL1        0.0657
      4 N          63.7811   88.3297   13.2012 N.ar    1  UNL1       -0.2630
      5 C          63.9729   89.6754   12.5669 C.ar    1  UNL1        0.0854
      6 C          63.1001   87.0020   13.0481 C.2     1  UNL1        0.3236
      7 O          62.2056   86.5953   11.9147 O.2     1  UNL1       -0.2489
      8 N          63.4706   86.1523   14.2275 N.am    1  UNL1       -0.2514
      9 C          64.3806   86.9550   15.1094 C.3     1  UNL1        0.1398
     10 C          65.4352   93.9781   11.6614 C.ar    1  UNL1        0.2218
     11 N          66.2594   94.6945   12.6897 N.ar    1  UNL1       -0.2111
     12 C          66.6248   94.0055   13.9709 C.ar    1  UNL1        0.1147
     13 C          66.1660   92.6000   14.2241 C.ar    1  UNL1        0.0945
     14 CL         66.5314   91.9110   15.5053 Cl      1  UNL1       -0.0790
     15 C          65.3417   91.8835   13.1958 C.ar    1  UNL1        0.0977
     16 N          64.9763   92.5725   11.9145 N.ar    1  UNL1       -0.2126
     17 N          65.0697   94.6670   10.3801 N.pl3   1  UNL1       -0.2681
     18 H          64.1270   94.7208   10.1017 H       1  UNL1        0.1565
     19 C          67.7735   93.1659    9.3383 C.3     1  UNL1        0.1552
     20 N          67.3834   94.5841    9.0442 N.ar    1  UNL1       -0.2355
     21 N          68.1677   95.5614    8.2195 N.ar    1  UNL1       -0.1665
     22 C          67.4095   96.8553    8.1888 C.ar    1  UNL1        0.1230
     23 C          66.1568   96.6778    8.9944 C.ar    1  UNL1        0.0565
     24 C          66.1406   95.2741    9.5231 C.ar    1  UNL1        0.1328
     25 C          63.0118   84.7469   14.4805 C.3     1  UNL1        0.1292
     26 C          63.2390   83.6858   13.4448 C.ar    1  UNL1       -0.0009
     27 C          64.0402   83.9968   12.2156 C.ar    1  UNL1       -0.0025
     28 C          64.2674   82.9357   11.1799 C.ar    1  UNL1        0.0006
     29 C          63.6932   81.5636   11.3736 C.ar    1  UNL1        0.0114
     30 C          62.8919   81.2525   12.6029 C.ar    1  UNL1        0.0574
     31 CL         62.3177   79.8804   12.7966 Cl      1  UNL1       -0.0823
     32 C          62.6648   82.3136   13.6385 C.ar    1  UNL1        0.0088
     33 C          62.3257   84.4024   15.7691 C.3     1  UNL1        0.1614
     34 O          61.7090   85.4857   16.6035 O.3     1  UNL1       -0.3799
     35 H          62.4058   86.0696   16.9418 H       1  UNL1        0.2105
@<TRIPOS>BOND
     1    19    20    1
     2    20    21   ar
     3    21    22   ar
     4    22    23   ar
     5    23    24   ar
     6    24    17    1
     7    17    10    1
     8    10    11   ar
     9    11    12   ar
    10    12    13   ar
    11    13    14    1
    12    13    15   ar
    13    15     1    1
    14     1     2   ar
    15     2     3   ar
    16     3     4   ar
    17     4     5   ar
    18     4     6   am
    19     6     7    2
    20     6     8   am
    21     8    25    1
    22    25    33    1
    23    33    34    1
    24    25    26    1
    25    26    27   ar
    26    27    28   ar
    27    28    29   ar
    28    29    30   ar
    29    30    31    1
    30    30    32   ar
    31     8     9    1
    32    15    16   ar
    33    24    20   ar
    34    16    10   ar
    35     5     1   ar
    36    32    26   ar
    37     9     3    1
    38    17    18    1
    39    34    35    1
@<TRIPOS>MOLECULE
*****
 35 39 0 0 0
SMALL
GASTEIGER

@<TRIPOS>ATOM
      1 C          64.1935   88.6783   14.2825 C.ar    1  UNL1        0.0375
      2 C          64.6231   87.3600   14.8548 C.ar    1  UNL1        0.0179
      3 C          64.1843   86.2800   13.9109 C.ar    1  UNL1        0.0657
      4 N          63.4835   86.9307   12.7553 N.ar    1  UNL1       -0.2630
      5 C          63.4892   88.4130   12.9850 C.ar    1  UNL1        0.0854
      6 C          63.0447   85.8507   11.8114 C.2     1  UNL1        0.3236
      7 O          62.3061   86.0534   10.5217 O.2     1  UNL1       -0.2489
      8 N          63.4743   84.5323   12.3837 N.am    1  UNL1       -0.2514
      9 C          64.1786   84.7977   13.6812 C.3     1  UNL1        0.1398
     10 C          65.5461   92.3693   14.8285 C.ar    1  UNL1        0.2218
     11 N          64.8945   92.7198   16.1333 N.ar    1  UNL1       -0.2111
     12 C          64.0094   91.7232   16.8212 C.ar    1  UNL1        0.1147
     13 C          63.7757   90.3760   16.2043 C.ar    1  UNL1        0.0945
     14 CL         62.8905   89.3795   16.8923 Cl      1  UNL1       -0.0790
     15 C          64.4272   90.0255   14.8995 C.ar    1  UNL1        0.0977
     16 N          65.3123   91.0221   14.2116 N.ar    1  UNL1       -0.2126
     17 N          66.4312   93.3658   14.1405 N.pl3   1  UNL1       -0.2681
     18 H          66.8766   94.0716   14.6627 H       1  UNL1        0.1565
     19 C          68.6670   91.5476   12.6093 C.3     1  UNL1        0.1552
     20 N          67.6656   92.4512   11.9531 N.ar    1  UNL1       -0.2355
     21 N          67.5160   92.6778   10.4778 N.ar    1  UNL1       -0.1665
     22 C          66.3959   93.6536   10.2700 C.ar    1  UNL1        0.1230
     23 C          65.8532   94.0301   11.6167 C.ar    1  UNL1        0.0565
     24 C          66.6379   93.2870   12.6569 C.ar    1  UNL1        0.1328
     25 C          63.2407   83.1852   11.7667 C.3     1  UNL1        0.1292
     26 C          62.8108   82.0319   12.6242 C.ar    1  UNL1       -0.0009
     27 C          63.8285   81.0529   13.1296 C.ar    1  UNL1       -0.0025
     28 C          63.3986   79.8996   13.9871 C.ar    1  UNL1        0.0006
     29 C          61.9510   79.7254   14.3390 C.ar    1  UNL1        0.0114
     30 C          60.9332   80.7045   13.8335 C.ar    1  UNL1        0.0574
     31 CL         59.4855   80.5303   14.1853 Cl      1  UNL1       -0.0823
     32 C          61.3631   81.8577   12.9761 C.ar    1  UNL1        0.0088
     33 C          63.4369   82.9913   10.2923 C.3     1  UNL1        0.1614
     34 O          64.6353   82.2441    9.7869 O.3     1  UNL1       -0.3799
     35 H          65.4396   82.7456    9.9931 H       1  UNL1        0.2105
@<TRIPOS>BOND
     1    19    20    1
     2    20    21   ar
     3    21    22   ar
     4    22    23   ar
     5    23    24   ar
     6    24    17    1
     7    17    10    1
     8    10    11   ar
     9    11    12   ar
    10    12    13   ar
    11    13    14    1
    12    13    15   ar
    13    15     1    1
    14     1     2   ar
    15     2     3   ar
    16     3     4   ar
    17     4     5   ar
    18     4     6   am
    19     6     7    2
    20     6     8   am
    21     8    25    1
    22    25    33    1
    23    33    34    1
    24    25    26    1
    25    26    27   ar
    26    27    28   ar
    27    28    29   ar
    28    29    30   ar
    29    30    31    1
    30    30    32   ar
    31     8     9    1
    32    15    16   ar
    33    24    20   ar
    34    16    10   ar
    35     5     1   ar
    36    32    26   ar
    37     9     3    1
    38    17    18    1
    39    34    35    1
