@<TRIPOS>MOLECULE
*****
 33 36 0 0 0
SMALL
GASTEIGER

@<TRIPOS>ATOM
      1 C          63.8835   87.1725   14.8087 C.ar    1  UNL1        0.0537
      2 C          63.4695   87.4865   16.2158 C.ar    1  UNL1        0.0042
      3 C          63.3998   88.9122   16.6767 C.ar    1  UNL1       -0.0025
      4 C          63.7442   90.0239   15.7305 C.ar    1  UNL1       -0.0026
      5 C          64.1582   89.7100   14.3233 C.ar    1  UNL1       -0.0025
      6 C          64.2279   88.2843   13.8625 C.ar    1  UNL1        0.0042
      7 N          62.7656   85.1138   13.6854 N.am    1  UNL1       -0.2794
      8 C          63.9532   85.7467   14.3479 C.2     1  UNL1        0.2495
      9 O          65.2105   84.9540   14.5495 O.2     1  UNL1       -0.2698
     10 H          61.9404   85.6341   13.5530 H       1  UNL1        0.1552
     11 N          62.5107   82.8808   15.6726 N.pl3   1  UNL1       -0.3560
     12 C          62.7078   82.5715   14.2181 C.ar    1  UNL1        0.0552
     13 C          62.7775   81.1458   13.7572 C.ar    1  UNL1        0.0153
     14 C          62.9746   80.8366   12.3028 C.ar    1  UNL1        0.0013
     15 C          63.1020   81.9530   11.3092 C.ar    1  UNL1        0.0014
     16 C          63.0323   83.3787   11.7700 C.ar    1  UNL1        0.0159
     17 C          62.8352   83.6880   13.2245 C.ar    1  UNL1        0.0636
     18 H          62.4271   82.1480   16.3247 H       1  UNL1        0.1424
     19 H          62.4650   83.8166   15.9751 H       1  UNL1        0.1424
     20 C          63.6745   91.4497   16.1913 C.3     1  UNL1        0.1157
     21 N          64.9286   92.2659   16.2969 N.pl3   1  UNL1       -0.3098
     22 H          65.0999   92.8029   17.1041 H       1  UNL1        0.1490
     23 C          65.9216   92.2639   15.1727 C.2     1  UNL1        0.1517
     24 N          65.6936   92.8091   13.7940 N.2     1  UNL1       -0.2477
     25 C          66.9480   92.5986   12.9990 C.3     1  UNL1        0.1385
     26 C          67.9513   91.9232   13.8864 C.3     1  UNL1        0.0937
     27 S          67.3169   91.7164   15.2298 S.3     1  UNL1       -0.0782
     28 C          67.1617   92.9939   11.5679 C.ar    1  UNL1        0.0007
     29 C          68.0281   92.1522   10.6786 C.ar    1  UNL1       -0.0024
     30 C          68.2419   92.5475    9.2475 C.ar    1  UNL1       -0.0003
     31 C          67.5890   93.7847    8.7057 C.ar    1  UNL1       -0.0000
     32 C          66.7226   94.6263    9.5950 C.ar    1  UNL1       -0.0003
     33 C          66.5089   94.2310   11.0261 C.ar    1  UNL1       -0.0024
@<TRIPOS>BOND
     1    11    12    1
     2    12    13   ar
     3    13    14   ar
     4    14    15   ar
     5    15    16   ar
     6    16    17   ar
     7    17     7    1
     8     7     8   am
     9     8     9    2
    10     8     1    1
    11     1     2   ar
    12     2     3   ar
    13     3     4   ar
    14     4    20    1
    15    20    21    1
    16    21    23    1
    17    23    24    2
    18    24    25    1
    19    25    28    1
    20    28    29   ar
    21    29    30   ar
    22    30    31   ar
    23    31    32   ar
    24    32    33   ar
    25    25    26    1
    26    26    27    1
    27     4     5   ar
    28     5     6   ar
    29    17    12   ar
    30     6     1   ar
    31    27    23    1
    32    33    28   ar
    33    11    18    1
    34    11    19    1
    35     7    10    1
    36    21    22    1
@<TRIPOS>MOLECULE
*****
 33 36 0 0 0
SMALL
GASTEIGER

@<TRIPOS>ATOM
      1 C          63.6292   86.1222   15.1667 C.ar    1  UNL1        0.0537
      2 C          64.1912   87.1426   14.2217 C.ar    1  UNL1        0.0042
      3 C          64.2203   88.5906   14.6121 C.ar    1  UNL1       -0.0025
      4 C          63.6873   89.0182   15.9474 C.ar    1  UNL1       -0.0026
      5 C          63.1253   87.9978   16.8923 C.ar    1  UNL1       -0.0025
      6 C          63.0962   86.5498   16.5020 C.ar    1  UNL1        0.0042
      7 N          62.5788   84.1826   13.7938 N.am    1  UNL1       -0.2794
      8 C          63.6002   84.6742   14.7763 C.2     1  UNL1        0.2495
      9 O          64.5925   83.7177   15.3683 O.2     1  UNL1       -0.2698
     10 H          61.9276   84.8103   13.4052 H       1  UNL1        0.1552
     11 N          63.9061   83.2860   11.2572 N.pl3   1  UNL1       -0.3560
     12 C          63.2134   82.2863   12.1351 C.ar    1  UNL1        0.0552
     13 C          63.1844   80.8383   11.7448 C.ar    1  UNL1        0.0153
     14 C          62.4917   79.8385   12.6227 C.ar    1  UNL1        0.0013
     15 C          61.8281   80.2868   13.8910 C.ar    1  UNL1        0.0014
     16 C          61.8571   81.7348   14.2814 C.ar    1  UNL1        0.0159
     17 C          62.5498   82.7345   13.4034 C.ar    1  UNL1        0.0636
     18 H          64.3416   82.9917   10.4247 H       1  UNL1        0.1424
     19 H          63.9252   84.2364   11.5134 H       1  UNL1        0.1424
     20 C          63.7163   90.4663   16.3378 C.3     1  UNL1        0.1157
     21 N          63.7013   91.5289   15.2792 N.pl3   1  UNL1       -0.3098
     22 H          62.8737   92.0298   15.0963 H       1  UNL1        0.1490
     23 C          64.9471   91.8283   14.4993 C.2     1  UNL1        0.1517
     24 N          65.0072   92.2435   13.0592 N.2     1  UNL1       -0.2477
     25 C          66.4487   92.4368   12.6923 C.3     1  UNL1        0.1385
     26 C          67.2796   92.1411   13.9058 C.3     1  UNL1        0.0937
     27 S          66.3514   91.7650   15.0225 S.3     1  UNL1       -0.0782
     28 C          66.9683   92.8529   11.3481 C.ar    1  UNL1        0.0007
     29 C          66.5097   94.1417   10.7328 C.ar    1  UNL1       -0.0024
     30 C          67.0292   94.5578    9.3885 C.ar    1  UNL1       -0.0003
     31 C          68.0074   93.6849    8.6596 C.ar    1  UNL1       -0.0000
     32 C          68.4661   92.3961    9.2749 C.ar    1  UNL1       -0.0003
     33 C          67.9465   91.9801   10.6191 C.ar    1  UNL1       -0.0024
@<TRIPOS>BOND
     1    11    12    1
     2    12    13   ar
     3    13    14   ar
     4    14    15   ar
     5    15    16   ar
     6    16    17   ar
     7    17     7    1
     8     7     8   am
     9     8     9    2
    10     8     1    1
    11     1     2   ar
    12     2     3   ar
    13     3     4   ar
    14     4    20    1
    15    20    21    1
    16    21    23    1
    17    23    24    2
    18    24    25    1
    19    25    28    1
    20    28    29   ar
    21    29    30   ar
    22    30    31   ar
    23    31    32   ar
    24    32    33   ar
    25    25    26    1
    26    26    27    1
    27     4     5   ar
    28     5     6   ar
    29    17    12   ar
    30     6     1   ar
    31    27    23    1
    32    33    28   ar
    33    11    18    1
    34    11    19    1
    35     7    10    1
    36    21    22    1
@<TRIPOS>MOLECULE
*****
 33 36 0 0 0
SMALL
GASTEIGER

@<TRIPOS>ATOM
      1 C          63.6840   91.1266   12.0392 C.ar    1  UNL1        0.0537
      2 C          63.4128   91.2626   10.5702 C.ar    1  UNL1        0.0042
      3 C          62.2110   90.5999    9.9649 C.ar    1  UNL1       -0.0025
      4 C          61.2804   89.8012   10.8286 C.ar    1  UNL1       -0.0026
      5 C          61.5515   89.6652   12.2976 C.ar    1  UNL1       -0.0025
      6 C          62.7534   90.3279   12.9029 C.ar    1  UNL1        0.0042
      7 N          65.5270   91.2061   13.8687 N.am    1  UNL1       -0.2794
      8 C          64.8859   91.7893   12.6445 C.2     1  UNL1        0.2495
      9 O          65.4466   93.0353   12.0255 O.2     1  UNL1       -0.2698
     10 H          65.1589   90.3883   14.2750 H       1  UNL1        0.1552
     11 N          65.2792   92.6697   16.4757 N.pl3   1  UNL1       -0.3560
     12 C          66.6049   92.6006   15.7775 C.ar    1  UNL1        0.0552
     13 C          67.8068   93.2633   16.3827 C.ar    1  UNL1        0.0153
     14 C          69.1326   93.1942   15.6844 C.ar    1  UNL1        0.0013
     15 C          69.2565   92.4624   14.3810 C.ar    1  UNL1        0.0014
     16 C          68.0546   91.7997   13.7758 C.ar    1  UNL1        0.0159
     17 C          66.7289   91.8688   14.4740 C.ar    1  UNL1        0.0636
     18 H          65.1978   93.1501   17.3312 H       1  UNL1        0.1424
     19 H          64.4903   92.2348   16.0785 H       1  UNL1        0.1424
     20 C          60.0785   89.1385   10.2233 C.3     1  UNL1        0.1157
     21 N          60.2481   87.9300    9.3510 N.pl3   1  UNL1       -0.3098
     22 H          59.7488   87.8592    8.5055 H       1  UNL1        0.1490
     23 C          61.1784   86.8294    9.7670 C.2     1  UNL1        0.1517
     24 N          61.3239   86.2747   11.1530 N.2     1  UNL1       -0.2477
     25 C          62.3620   85.1927   11.1127 C.3     1  UNL1        0.1385
     26 C          62.8581   85.0787    9.7016 C.3     1  UNL1        0.0937
     27 S          62.1266   86.0902    8.8700 S.3     1  UNL1       -0.0782
     28 C          62.8231   84.3693   12.2786 C.ar    1  UNL1        0.0007
     29 C          62.6238   82.8826   12.2724 C.ar    1  UNL1       -0.0024
     30 C          63.0848   82.0591   13.4383 C.ar    1  UNL1       -0.0003
     31 C          63.7452   82.7224   14.6105 C.ar    1  UNL1       -0.0000
     32 C          63.9446   84.2091   14.6167 C.ar    1  UNL1       -0.0003
     33 C          63.4835   85.0325   13.4508 C.ar    1  UNL1       -0.0024
@<TRIPOS>BOND
     1    11    12    1
     2    12    13   ar
     3    13    14   ar
     4    14    15   ar
     5    15    16   ar
     6    16    17   ar
     7    17     7    1
     8     7     8   am
     9     8     9    2
    10     8     1    1
    11     1     2   ar
    12     2     3   ar
    13     3     4   ar
    14     4    20    1
    15    20    21    1
    16    21    23    1
    17    23    24    2
    18    24    25    1
    19    25    28    1
    20    28    29   ar
    21    29    30   ar
    22    30    31   ar
    23    31    32   ar
    24    32    33   ar
    25    25    26    1
    26    26    27    1
    27     4     5   ar
    28     5     6   ar
    29    17    12   ar
    30     6     1   ar
    31    27    23    1
    32    33    28   ar
    33    11    18    1
    34    11    19    1
    35     7    10    1
    36    21    22    1
@<TRIPOS>MOLECULE
*****
 33 36 0 0 0
SMALL
GASTEIGER

@<TRIPOS>ATOM
      1 C          62.4410   86.7450   11.3509 C.ar    1  UNL1        0.0537
      2 C          61.7609   87.2488   10.1125 C.ar    1  UNL1        0.0042
      3 C          61.7011   88.7219    9.8362 C.ar    1  UNL1       -0.0025
      4 C          62.3215   89.6911   10.7982 C.ar    1  UNL1       -0.0026
      5 C          63.0017   89.1873   12.0366 C.ar    1  UNL1       -0.0025
      6 C          63.0614   87.7143   12.3129 C.ar    1  UNL1        0.0042
      7 N          62.6483   84.7784   13.0360 N.am    1  UNL1       -0.2794
      8 C          62.5007   85.2718   11.6272 C.2     1  UNL1        0.2495
      9 O          62.4129   84.2922   10.4947 O.2     1  UNL1       -0.2698
     10 H          62.7059   85.4214   13.7793 H       1  UNL1        0.1552
     11 N          64.9628   83.1561   12.0303 N.pl3   1  UNL1       -0.3560
     12 C          63.8652   82.4941   12.8095 C.ar    1  UNL1        0.0552
     13 C          63.9249   81.0210   13.0858 C.ar    1  UNL1        0.0153
     14 C          62.8273   80.3590   13.8650 C.ar    1  UNL1        0.0013
     15 C          61.6701   81.1701   14.3679 C.ar    1  UNL1        0.0014
     16 C          61.6104   82.6432   14.0915 C.ar    1  UNL1        0.0159
     17 C          62.7080   83.3052   13.3123 C.ar    1  UNL1        0.0636
     18 H          65.7223   82.6237   11.7003 H       1  UNL1        0.1424
     19 H          64.9236   84.1230   11.8490 H       1  UNL1        0.1424
     20 C          62.2618   91.1643   10.5219 C.3     1  UNL1        0.1157
     21 N          63.4177   91.8498    9.8554 N.pl3   1  UNL1       -0.3098
     22 H          63.4372   91.9412    8.8754 H       1  UNL1        0.1490
     23 C          64.5437   92.3961   10.6822 C.2     1  UNL1        0.1517
     24 N          64.9421   91.9259   12.0498 N.2     1  UNL1       -0.2477
     25 C          66.1137   92.7477   12.4994 C.3     1  UNL1        0.1385
     26 C          66.4394   93.7257   11.4096 C.3     1  UNL1        0.0937
     27 S          65.4691   93.5084   10.2866 S.3     1  UNL1       -0.0782
     28 C          66.8332   92.6147   13.8088 C.ar    1  UNL1        0.0007
     29 C          68.3008   92.3052   13.8301 C.ar    1  UNL1       -0.0024
     30 C          69.0204   92.1722   15.1395 C.ar    1  UNL1       -0.0003
     31 C          68.2723   92.3489   16.4277 C.ar    1  UNL1       -0.0000
     32 C          66.8048   92.6585   16.4064 C.ar    1  UNL1       -0.0003
     33 C          66.0852   92.7914   15.0969 C.ar    1  UNL1       -0.0024
@<TRIPOS>BOND
     1    11    12    1
     2    12    13   ar
     3    13    14   ar
     4    14    15   ar
     5    15    16   ar
     6    16    17   ar
     7    17     7    1
     8     7     8   am
     9     8     9    2
    10     8     1    1
    11     1     2   ar
    12     2     3   ar
    13     3     4   ar
    14     4    20    1
    15    20    21    1
    16    21    23    1
    17    23    24    2
    18    24    25    1
    19    25    28    1
    20    28    29   ar
    21    29    30   ar
    22    30    31   ar
    23    31    32   ar
    24    32    33   ar
    25    25    26    1
    26    26    27    1
    27     4     5   ar
    28     5     6   ar
    29    17    12   ar
    30     6     1   ar
    31    27    23    1
    32    33    28   ar
    33    11    18    1
    34    11    19    1
    35     7    10    1
    36    21    22    1
@<TRIPOS>MOLECULE
*****
 33 36 0 0 0
SMALL
GASTEIGER

@<TRIPOS>ATOM
      1 C          63.0292   87.9018   12.5638 C.ar    1  UNL1        0.0537
      2 C          62.5922   89.3358   12.5108 C.ar    1  UNL1        0.0042
      3 C          62.9360   90.2667   13.6355 C.ar    1  UNL1       -0.0025
      4 C          63.7168   89.7636   14.8134 C.ar    1  UNL1       -0.0026
      5 C          64.1537   88.3296   14.8664 C.ar    1  UNL1       -0.0025
      6 C          63.8099   87.3987   13.7416 C.ar    1  UNL1        0.0042
      7 N          62.3087   87.5238   10.0964 N.am    1  UNL1       -0.2794
      8 C          62.6853   86.9709   11.4389 C.2     1  UNL1        0.2495
      9 O          62.7181   85.4872   11.6567 O.2     1  UNL1       -0.2698
     10 H          62.2872   88.4976    9.9535 H       1  UNL1        0.1552
     11 N          59.5197   87.4707    8.9924 N.pl3   1  UNL1       -0.3560
     12 C          60.5704   86.5663    8.4196 C.ar    1  UNL1        0.0552
     13 C          60.2266   85.6355    7.2948 C.ar    1  UNL1        0.0153
     14 C          61.2773   84.7311    6.7219 C.ar    1  UNL1        0.0013
     15 C          62.6718   84.7576    7.2738 C.ar    1  UNL1        0.0014
     16 C          63.0156   85.6885    8.3987 C.ar    1  UNL1        0.0159
     17 C          61.9649   86.5929    8.9715 C.ar    1  UNL1        0.0636
     18 H          58.6045   87.4533    8.6302 H       1  UNL1        0.1424
     19 H          59.7454   88.0817    9.7307 H       1  UNL1        0.1424
     20 C          64.0606   90.6945   15.9382 C.3     1  UNL1        0.1157
     21 N          64.7213   92.0095   15.6481 N.pl3   1  UNL1       -0.3098
     22 H          64.4481   92.8170   16.1407 H       1  UNL1        0.1490
     23 C          65.7983   92.0943   14.6075 C.2     1  UNL1        0.1517
     24 N          65.6469   92.6583   13.2259 N.2     1  UNL1       -0.2477
     25 C          66.9708   92.5426   12.5303 C.3     1  UNL1        0.1385
     26 C          67.9405   91.9071   13.4821 C.3     1  UNL1        0.0937
     27 S          67.2159   91.6300   14.7659 S.3     1  UNL1       -0.0782
     28 C          67.2722   92.9848   11.1290 C.ar    1  UNL1        0.0007
     29 C          66.6864   94.2616   10.6031 C.ar    1  UNL1       -0.0024
     30 C          66.9877   94.7038    9.2018 C.ar    1  UNL1       -0.0003
     31 C          67.8749   93.8691    8.3263 C.ar    1  UNL1       -0.0000
     32 C          68.4606   92.5923    8.8523 C.ar    1  UNL1       -0.0003
     33 C          68.1593   92.1501   10.2536 C.ar    1  UNL1       -0.0024
@<TRIPOS>BOND
     1    11    12    1
     2    12    13   ar
     3    13    14   ar
     4    14    15   ar
     5    15    16   ar
     6    16    17   ar
     7    17     7    1
     8     7     8   am
     9     8     9    2
    10     8     1    1
    11     1     2   ar
    12     2     3   ar
    13     3     4   ar
    14     4    20    1
    15    20    21    1
    16    21    23    1
    17    23    24    2
    18    24    25    1
    19    25    28    1
    20    28    29   ar
    21    29    30   ar
    22    30    31   ar
    23    31    32   ar
    24    32    33   ar
    25    25    26    1
    26    26    27    1
    27     4     5   ar
    28     5     6   ar
    29    17    12   ar
    30     6     1   ar
    31    27    23    1
    32    33    28   ar
    33    11    18    1
    34    11    19    1
    35     7    10    1
    36    21    22    1
@<TRIPOS>MOLECULE
*****
 33 36 0 0 0
SMALL
GASTEIGER

@<TRIPOS>ATOM
      1 C          63.5099   85.6567   15.3489 C.ar    1  UNL1        0.0537
      2 C          64.2634   86.7175   14.6026 C.ar    1  UNL1        0.0042
      3 C          64.2693   88.1296   15.1084 C.ar    1  UNL1       -0.0025
      4 C          63.5217   88.4809   16.3605 C.ar    1  UNL1       -0.0026
      5 C          62.7682   87.4200   17.1068 C.ar    1  UNL1       -0.0025
      6 C          62.7623   86.0079   16.6010 C.ar    1  UNL1        0.0042
      7 N          62.6128   83.8614   13.6990 N.am    1  UNL1       -0.2794
      8 C          63.5040   84.2445   14.8430 C.2     1  UNL1        0.2495
      9 O          64.3894   83.2156   15.4813 O.2     1  UNL1       -0.2698
     10 H          62.0317   84.5367   13.2801 H       1  UNL1        0.1552
     11 N          63.6522   83.2475   10.9525 N.pl3   1  UNL1       -0.3560
     12 C          63.1266   82.1423   11.8199 C.ar    1  UNL1        0.0552
     13 C          63.1207   80.7302   11.3141 C.ar    1  UNL1        0.0153
     14 C          62.5952   79.6250   12.1815 C.ar    1  UNL1        0.0013
     15 C          62.0755   79.9319   13.5547 C.ar    1  UNL1        0.0014
     16 C          62.0814   81.3440   14.0605 C.ar    1  UNL1        0.0159
     17 C          62.6070   82.4492   13.1931 C.ar    1  UNL1        0.0636
     18 H          63.9933   83.0460   10.0513 H       1  UNL1        0.1424
     19 H          63.6561   84.1743   11.2845 H       1  UNL1        0.1424
     20 C          63.5276   89.8931   16.8664 C.3     1  UNL1        0.1157
     21 N          63.5175   91.0372   15.8964 N.pl3   1  UNL1       -0.3098
     22 H          63.5642   91.9633   16.2271 H       1  UNL1        0.1490
     23 C          63.4362   90.7703   14.4226 C.2     1  UNL1        0.1517
     24 N          62.4099   89.9185   13.7362 N.2     1  UNL1       -0.2477
     25 C          62.7063   89.9301   12.2658 C.3     1  UNL1        0.1385
     26 C          63.9158   90.7891   12.0435 C.3     1  UNL1        0.0937
     27 S          64.3669   91.3084   13.3765 S.3     1  UNL1       -0.0782
     28 C          61.9296   89.2093   11.2041 C.ar    1  UNL1        0.0007
     29 C          62.0926   87.7283   11.0307 C.ar    1  UNL1       -0.0024
     30 C          61.3159   87.0074    9.9690 C.ar    1  UNL1       -0.0003
     31 C          60.3762   87.7677    9.0807 C.ar    1  UNL1       -0.0000
     32 C          60.2133   89.2487    9.2541 C.ar    1  UNL1       -0.0003
     33 C          60.9900   89.9695   10.3158 C.ar    1  UNL1       -0.0024
@<TRIPOS>BOND
     1    11    12    1
     2    12    13   ar
     3    13    14   ar
     4    14    15   ar
     5    15    16   ar
     6    16    17   ar
     7    17     7    1
     8     7     8   am
     9     8     9    2
    10     8     1    1
    11     1     2   ar
    12     2     3   ar
    13     3     4   ar
    14     4    20    1
    15    20    21    1
    16    21    23    1
    17    23    24    2
    18    24    25    1
    19    25    28    1
    20    28    29   ar
    21    29    30   ar
    22    30    31   ar
    23    31    32   ar
    24    32    33   ar
    25    25    26    1
    26    26    27    1
    27     4     5   ar
    28     5     6   ar
    29    17    12   ar
    30     6     1   ar
    31    27    23    1
    32    33    28   ar
    33    11    18    1
    34    11    19    1
    35     7    10    1
    36    21    22    1
@<TRIPOS>MOLECULE
*****
 33 36 0 0 0
SMALL
GASTEIGER

@<TRIPOS>ATOM
      1 C          63.0151   89.7798   12.4652 C.ar    1  UNL1        0.0537
      2 C          63.3979   91.2168   12.2687 C.ar    1  UNL1        0.0042
      3 C          64.4420   91.8415   13.1458 C.ar    1  UNL1       -0.0025
      4 C          65.1034   91.0294   14.2195 C.ar    1  UNL1       -0.0026
      5 C          64.7206   89.5924   14.4161 C.ar    1  UNL1       -0.0025
      6 C          63.6765   88.9676   13.5389 C.ar    1  UNL1        0.0042
      7 N          62.2796   88.8562   10.1509 N.am    1  UNL1       -0.2794
      8 C          61.9709   89.1550   11.5880 C.2     1  UNL1        0.2495
      9 O          60.6181   88.8292   12.1480 O.2     1  UNL1       -0.2698
     10 H          63.1676   89.0701    9.7834 H       1  UNL1        0.1552
     11 N          62.1645   85.8738    9.8469 N.pl3   1  UNL1       -0.3560
     12 C          61.1779   86.7403    9.1217 C.ar    1  UNL1        0.0552
     13 C          60.1338   86.1156    8.2446 C.ar    1  UNL1        0.0153
     14 C          59.1472   86.9820    7.5194 C.ar    1  UNL1        0.0013
     15 C          59.2047   88.4732    7.6713 C.ar    1  UNL1        0.0014
     16 C          60.2489   89.0979    8.5485 C.ar    1  UNL1        0.0159
     17 C          61.2355   88.2314    9.2737 C.ar    1  UNL1        0.0636
     18 H          62.1267   84.8951    9.7472 H       1  UNL1        0.1424
     19 H          62.8498   86.2838   10.4227 H       1  UNL1        0.1424
     20 C          66.1475   91.6541   15.0967 C.3     1  UNL1        0.1157
     21 N          67.2559   92.4596   14.4862 N.pl3   1  UNL1       -0.3098
     22 H          67.9885   92.7963   15.0511 H       1  UNL1        0.1490
     23 C          67.2479   92.7522   13.0151 C.2     1  UNL1        0.1517
     24 N          66.6756   93.9755   12.3625 N.2     1  UNL1       -0.2477
     25 C          66.8849   93.8521   10.8823 C.3     1  UNL1        0.1385
     26 C          67.5866   92.5525   10.6200 C.3     1  UNL1        0.0937
     27 S          67.8109   91.8727   11.9382 S.3     1  UNL1       -0.0782
     28 C          66.4660   94.8527    9.8462 C.ar    1  UNL1        0.0007
     29 C          67.1242   94.8569    8.4983 C.ar    1  UNL1       -0.0024
     30 C          66.7054   95.8574    7.4622 C.ar    1  UNL1       -0.0003
     31 C          65.6283   96.8538    7.7740 C.ar    1  UNL1       -0.0000
     32 C          64.9700   96.8495    9.1218 C.ar    1  UNL1       -0.0003
     33 C          65.3889   95.8490   10.1579 C.ar    1  UNL1       -0.0024
@<TRIPOS>BOND
     1    11    12    1
     2    12    13   ar
     3    13    14   ar
     4    14    15   ar
     5    15    16   ar
     6    16    17   ar
     7    17     7    1
     8     7     8   am
     9     8     9    2
    10     8     1    1
    11     1     2   ar
    12     2     3   ar
    13     3     4   ar
    14     4    20    1
    15    20    21    1
    16    21    23    1
    17    23    24    2
    18    24    25    1
    19    25    28    1
    20    28    29   ar
    21    29    30   ar
    22    30    31   ar
    23    31    32   ar
    24    32    33   ar
    25    25    26    1
    26    26    27    1
    27     4     5   ar
    28     5     6   ar
    29    17    12   ar
    30     6     1   ar
    31    27    23    1
    32    33    28   ar
    33    11    18    1
    34    11    19    1
    35     7    10    1
    36    21    22    1
@<TRIPOS>MOLECULE
*****
 33 36 0 0 0
SMALL
GASTEIGER

@<TRIPOS>ATOM
      1 C          61.4164   86.2593    9.7414 C.ar    1  UNL1        0.0537
      2 C          61.0237   85.6797    8.4148 C.ar    1  UNL1        0.0042
      3 C          60.2285   86.5007    7.4435 C.ar    1  UNL1       -0.0025
      4 C          59.8259   87.9013    7.7988 C.ar    1  UNL1       -0.0026
      5 C          60.2186   88.4808    9.1254 C.ar    1  UNL1       -0.0025
      6 C          61.0138   87.6598   10.0967 C.ar    1  UNL1        0.0042
      7 N          62.0191   85.6270   12.1883 N.am    1  UNL1       -0.2794
      8 C          62.2117   85.4382   10.7128 C.2     1  UNL1        0.2495
      9 O          63.1995   84.4283   10.2085 O.2     1  UNL1       -0.2698
     10 H          61.3708   86.2899   12.5192 H       1  UNL1        0.1552
     11 N          63.9863   86.9591   14.0202 N.pl3   1  UNL1       -0.3560
     12 C          63.7980   85.4720   14.0755 C.ar    1  UNL1        0.0552
     13 C          64.5932   84.6509   15.0468 C.ar    1  UNL1        0.0153
     14 C          64.4048   83.1638   15.1022 C.ar    1  UNL1        0.0013
     15 C          63.4212   82.4978   14.1862 C.ar    1  UNL1        0.0014
     16 C          62.6260   83.3188   13.2150 C.ar    1  UNL1        0.0159
     17 C          62.8144   84.8059   13.1596 C.ar    1  UNL1        0.0636
     18 H          64.6319   87.3962   14.6214 H       1  UNL1        0.1424
     19 H          63.4644   87.4980   13.3827 H       1  UNL1        0.1424
     20 C          59.0307   88.7223    6.8274 C.3     1  UNL1        0.1157
     21 N          59.1014   90.2199    6.8772 N.pl3   1  UNL1       -0.3098
     22 H          58.9952   90.6894    7.7359 H       1  UNL1        0.1490
     23 C          59.3340   91.0019    5.6185 C.2     1  UNL1        0.1517
     24 N          60.6588   91.2252    4.9514 N.2     1  UNL1       -0.2477
     25 C          60.4263   92.0593    3.7266 C.3     1  UNL1        0.1385
     26 C          58.9577   92.3515    3.6367 C.3     1  UNL1        0.0937
     27 S          58.2827   91.6980    4.8060 S.3     1  UNL1       -0.0782
     28 C          61.4777   92.5203    2.7612 C.ar    1  UNL1        0.0007
     29 C          61.1296   93.5106    1.6896 C.ar    1  UNL1       -0.0024
     30 C          62.1809   93.9716    0.7241 C.ar    1  UNL1       -0.0003
     31 C          63.5805   93.4423    0.8302 C.ar    1  UNL1       -0.0000
     32 C          63.9285   92.4520    1.9018 C.ar    1  UNL1       -0.0003
     33 C          62.8771   91.9910    2.8672 C.ar    1  UNL1       -0.0024
@<TRIPOS>BOND
     1    11    12    1
     2    12    13   ar
     3    13    14   ar
     4    14    15   ar
     5    15    16   ar
     6    16    17   ar
     7    17     7    1
     8     7     8   am
     9     8     9    2
    10     8     1    1
    11     1     2   ar
    12     2     3   ar
    13     3     4   ar
    14     4    20    1
    15    20    21    1
    16    21    23    1
    17    23    24    2
    18    24    25    1
    19    25    28    1
    20    28    29   ar
    21    29    30   ar
    22    30    31   ar
    23    31    32   ar
    24    32    33   ar
    25    25    26    1
    26    26    27    1
    27     4     5   ar
    28     5     6   ar
    29    17    12   ar
    30     6     1   ar
    31    27    23    1
    32    33    28   ar
    33    11    18    1
    34    11    19    1
    35     7    10    1
    36    21    22    1
@<TRIPOS>MOLECULE
*****
 33 36 0 0 0
SMALL
GASTEIGER

@<TRIPOS>ATOM
      1 C          62.1721   89.2337   10.8849 C.ar    1  UNL1        0.0537
      2 C          61.1050   90.1761   10.4126 C.ar    1  UNL1        0.0042
      3 C          60.2026   89.7812    9.2814 C.ar    1  UNL1       -0.0025
      4 C          60.3673   88.4439    8.6225 C.ar    1  UNL1       -0.0026
      5 C          61.4344   87.5014    9.0947 C.ar    1  UNL1       -0.0025
      6 C          62.3368   87.8963   10.2259 C.ar    1  UNL1        0.0042
      7 N          63.5033   91.0578   12.1696 N.am    1  UNL1       -0.2794
      8 C          63.0746   89.6286   12.0161 C.2     1  UNL1        0.2495
      9 O          63.5482   88.5944   12.9939 O.2     1  UNL1       -0.2698
     10 H          63.1924   91.7366   11.5279 H       1  UNL1        0.1552
     11 N          66.0840   92.4791   11.6038 N.pl3   1  UNL1       -0.3560
     12 C          65.6960   92.1634   13.0180 C.ar    1  UNL1        0.0552
     13 C          66.5984   92.5583   14.1492 C.ar    1  UNL1        0.0153
     14 C          66.2104   92.2426   15.5634 C.ar    1  UNL1        0.0013
     15 C          64.9201   91.5320   15.8463 C.ar    1  UNL1        0.0014
     16 C          64.0178   91.1371   14.7151 C.ar    1  UNL1        0.0159
     17 C          64.4057   91.4528   13.3009 C.ar    1  UNL1        0.0636
     18 H          66.9308   92.9456   11.4182 H       1  UNL1        0.1424
     19 H          65.4917   92.2199   10.8614 H       1  UNL1        0.1424
     20 C          59.4649   88.0489    7.4912 C.3     1  UNL1        0.1157
     21 N          58.4203   89.0049    6.9962 N.pl3   1  UNL1       -0.3098
     22 H          57.4989   88.9474    7.3382 H       1  UNL1        0.1490
     23 C          58.7796   90.0483    5.9803 C.2     1  UNL1        0.1517
     24 N          60.1245   90.2308    5.3417 N.2     1  UNL1       -0.2477
     25 C          60.0332   91.3877    4.3914 C.3     1  UNL1        0.1385
     26 C          58.6318   91.9203    4.4426 C.3     1  UNL1        0.0937
     27 S          57.8571   91.0924    5.4246 S.3     1  UNL1       -0.0782
     28 C          61.1476   91.9189    3.5393 C.ar    1  UNL1        0.0007
     29 C          62.5007   91.2731    3.5860 C.ar    1  UNL1       -0.0024
     30 C          63.6151   91.8043    2.7340 C.ar    1  UNL1       -0.0003
     31 C          63.3765   92.9813    1.8352 C.ar    1  UNL1       -0.0000
     32 C          62.0234   93.6271    1.7885 C.ar    1  UNL1       -0.0003
     33 C          60.9090   93.0959    2.6406 C.ar    1  UNL1       -0.0024
@<TRIPOS>BOND
     1    11    12    1
     2    12    13   ar
     3    13    14   ar
     4    14    15   ar
     5    15    16   ar
     6    16    17   ar
     7    17     7    1
     8     7     8   am
     9     8     9    2
    10     8     1    1
    11     1     2   ar
    12     2     3   ar
    13     3     4   ar
    14     4    20    1
    15    20    21    1
    16    21    23    1
    17    23    24    2
    18    24    25    1
    19    25    28    1
    20    28    29   ar
    21    29    30   ar
    22    30    31   ar
    23    31    32   ar
    24    32    33   ar
    25    25    26    1
    26    26    27    1
    27     4     5   ar
    28     5     6   ar
    29    17    12   ar
    30     6     1   ar
    31    27    23    1
    32    33    28   ar
    33    11    18    1
    34    11    19    1
    35     7    10    1
    36    21    22    1
