@<TRIPOS>MOLECULE
*****
 36 39 0 0 0
SMALL
GASTEIGER

@<TRIPOS>ATOM
      1 C          61.2986   88.0874    9.7924 C.3     1  UNL1        0.2250
      2 C          61.5495   86.6591    9.4088 C.2     1  UNL1        0.0436
      3 C          60.6512   85.9798    8.4180 C.2     1  UNL1        0.0288
      4 C          59.5021   86.7288    7.8107 C.2     1  UNL1        0.0896
      5 N          59.2513   88.1570    8.1943 N.am    1  UNL1       -0.1770
      6 C          60.1496   88.8363    9.1852 C.2     1  UNL1        0.2627
      7 O          59.8988   90.2646    9.5687 O.2     1  UNL1       -0.2719
      8 C          65.1784   91.5872   13.5742 C.2     1  UNL1        0.0674
      9 C          65.0913   90.3902   14.4739 C.2     1  UNL1        0.0030
     10 C          64.2698   89.2033   14.0657 C.2     1  UNL1        0.0245
     11 C          64.1827   88.0063   14.9655 C.3     1  UNL1        0.0350
     12 C          63.5355   89.2135   12.7578 C.2     1  UNL1        0.2277
     13 N          62.6543   88.1975   12.0935 N.2     1  UNL1       -0.0345
     14 C          62.1969   88.7667   10.7832 C.2     1  UNL1        0.3649
     15 N          62.7953   90.1344   10.6377 N.2     1  UNL1       -0.0380
     16 C          63.6226   90.4106   11.8581 C.2     1  UNL1        0.2174
     17 C          64.4441   91.5974   12.2663 C.3     1  UNL1        0.1115
     18 C          65.9998   92.7741   13.9824 C.2     1  UNL1        0.3086
     19 N          66.5896   93.6734   12.9368 N.2     1  UNL1       -0.0995
     20 H          67.1287   94.4524   13.2047 H       1  UNL1        0.3633
     21 C          67.5240   92.6611   16.0833 C.3     1  UNL1        0.2504
     22 N          66.2314   93.0616   15.4362 N.pl3   1  UNL1       -0.2159
     23 H          65.5350   93.5132   15.9657 H       1  UNL1        0.2924
     24 N          62.6985   85.9101   10.0160 N.pl3   1  UNL1       -0.3329
     25 H          63.2870   86.3554   10.6675 H       1  UNL1        0.1466
     26 C          62.9507   84.4826    9.6306 C.3     1  UNL1        0.1211
     27 C          63.7001   83.5757   10.5612 C.3     1  UNL1        0.1522
     28 O          64.8842   82.8017   10.0624 O.3     1  UNL1       -0.3783
     29 H          65.0287   83.0008    9.1241 H       1  UNL1        0.2109
     30 C          63.2653   83.4428   11.9906 C.ar    1  UNL1        0.0067
     31 C          63.6621   84.4837   12.9952 C.ar    1  UNL1       -0.0018
     32 C          63.2274   84.3508   14.4246 C.ar    1  UNL1        0.0006
     33 C          62.3958   83.1770   14.8496 C.ar    1  UNL1        0.0114
     34 C          61.9990   82.1361   13.8451 C.ar    1  UNL1        0.0574
     35 CL         61.1674   80.9623   14.2701 Cl      1  UNL1       -0.0823
     36 C          62.4337   82.2690   12.4156 C.ar    1  UNL1        0.0095
@<TRIPOS>BOND
     1    21    22    1
     2    22    18    1
     3    18    19    2
     4    18     8    1
     5     8     9    2
     6     9    10    1
     7    10    11    1
     8    10    12    2
     9    12    13    1
    10    13    14    2
    11    14     1    1
    12     1     2    1
    13     2    24    1
    14    24    26    1
    15    26    27    1
    16    27    28    1
    17    27    30    1
    18    30    31   ar
    19    31    32   ar
    20    32    33   ar
    21    33    34   ar
    22    34    35    1
    23    34    36   ar
    24     2     3    2
    25     3     4    1
    26     4     5    2
    27     5     6    1
    28     6     7    2
    29    14    15    1
    30    15    16    2
    31    16    17    1
    32    17     8    1
    33    16    12    1
    34     6     1    1
    35    36    30   ar
    36    22    23    1
    37    19    20    1
    38    24    25    1
    39    28    29    1
@<TRIPOS>MOLECULE
*****
 36 39 0 0 0
SMALL
GASTEIGER

@<TRIPOS>ATOM
      1 C          63.9120   90.5384   13.4750 C.3     1  UNL1        0.2250
      2 C          63.8522   90.2154   14.9386 C.2     1  UNL1        0.0436
      3 C          64.6550   91.0200   15.9176 C.2     1  UNL1        0.0288
      4 C          65.5175   92.1474   15.4330 C.2     1  UNL1        0.0896
      5 N          65.5773   92.4704   13.9694 N.am    1  UNL1       -0.1770
      6 C          64.7745   91.6659   12.9904 C.2     1  UNL1        0.2627
      7 O          64.8343   91.9889   11.5269 O.2     1  UNL1       -0.2719
      8 C          60.1801   87.7335    9.0244 C.2     1  UNL1        0.0674
      9 C          60.7870   86.4721    9.5633 C.2     1  UNL1        0.0030
     10 C          61.7856   86.5380   10.6806 C.2     1  UNL1        0.0245
     11 C          62.3925   85.2764   11.2195 C.3     1  UNL1        0.0350
     12 C          62.1774   87.8654   11.2590 C.2     1  UNL1        0.2277
     13 N          63.1284   88.2406   12.3566 N.2     1  UNL1       -0.0345
     14 C          63.1093   89.7340   12.4960 C.2     1  UNL1        0.3649
     15 N          62.1464   90.2817   11.4846 N.2     1  UNL1       -0.0380
     16 C          61.5705   89.1268   10.7200 C.2     1  UNL1        0.2174
     17 C          60.5719   89.0609    9.6027 C.3     1  UNL1        0.1115
     18 C          59.1814   87.6676    7.9070 C.2     1  UNL1        0.3086
     19 N          58.6683   86.3388    7.4371 N.2     1  UNL1       -0.0995
     20 H          58.0129   86.2956    6.7038 H       1  UNL1        0.3633
     21 C          59.4991   89.5692    6.1656 C.3     1  UNL1        0.2504
     22 N          58.6960   88.9306    7.2597 N.pl3   1  UNL1       -0.2159
     23 H          57.8502   89.3404    7.5529 H       1  UNL1        0.2924
     24 N          62.9897   89.0880   15.4233 N.pl3   1  UNL1       -0.3329
     25 H          62.2943   88.7127   14.8361 H       1  UNL1        0.1466
     26 C          63.1867   88.5324   16.8026 C.3     1  UNL1        0.1211
     27 C          62.9399   87.0766   17.0670 C.3     1  UNL1        0.1522
     28 O          62.2205   86.6521   18.3128 O.3     1  UNL1       -0.3783
     29 H          61.9859   87.4360   18.8338 H       1  UNL1        0.2109
     30 C          63.4126   86.0455   16.0855 C.ar    1  UNL1        0.0067
     31 C          64.6898   86.2600   15.3289 C.ar    1  UNL1       -0.0018
     32 C          65.1625   85.2289   14.3474 C.ar    1  UNL1        0.0006
     33 C          64.3579   83.9830   14.1226 C.ar    1  UNL1        0.0114
     34 C          63.0806   83.7685   14.8792 C.ar    1  UNL1        0.0574
     35 CL         62.2760   82.5227   14.6544 Cl      1  UNL1       -0.0823
     36 C          62.6080   84.7996   15.8607 C.ar    1  UNL1        0.0095
@<TRIPOS>BOND
     1    21    22    1
     2    22    18    1
     3    18    19    2
     4    18     8    1
     5     8     9    2
     6     9    10    1
     7    10    11    1
     8    10    12    2
     9    12    13    1
    10    13    14    2
    11    14     1    1
    12     1     2    1
    13     2    24    1
    14    24    26    1
    15    26    27    1
    16    27    28    1
    17    27    30    1
    18    30    31   ar
    19    31    32   ar
    20    32    33   ar
    21    33    34   ar
    22    34    35    1
    23    34    36   ar
    24     2     3    2
    25     3     4    1
    26     4     5    2
    27     5     6    1
    28     6     7    2
    29    14    15    1
    30    15    16    2
    31    16    17    1
    32    17     8    1
    33    16    12    1
    34     6     1    1
    35    36    30   ar
    36    22    23    1
    37    19    20    1
    38    24    25    1
    39    28    29    1
@<TRIPOS>MOLECULE
*****
 36 39 0 0 0
SMALL
GASTEIGER

@<TRIPOS>ATOM
      1 C          63.5570   88.2353   15.4744 C.3     1  UNL1        0.2250
      2 C          63.6756   86.7642   15.2068 C.2     1  UNL1        0.0436
      3 C          63.4084   85.7782   16.3052 C.2     1  UNL1        0.0288
      4 C          63.0225   86.2633   17.6711 C.2     1  UNL1        0.0896
      5 N          62.9039   87.7344   17.9387 N.am    1  UNL1       -0.1770
      6 C          63.1711   88.7204   16.8403 C.2     1  UNL1        0.2627
      7 O          63.0525   90.1916   17.1079 O.2     1  UNL1       -0.2719
      8 C          65.2282   92.7709   11.2037 C.2     1  UNL1        0.0674
      9 C          64.1683   92.1224   10.3636 C.2     1  UNL1        0.0030
     10 C          63.4068   90.9441   10.8947 C.2     1  UNL1        0.0245
     11 C          62.3469   90.2956   10.0544 C.3     1  UNL1        0.0350
     12 C          63.7054   90.4145   12.2659 C.2     1  UNL1        0.2277
     13 N          63.1237   89.2763   13.0508 N.2     1  UNL1       -0.0345
     14 C          63.8242   89.2214   14.3760 C.2     1  UNL1        0.3649
     15 N          64.8388   90.3256   14.4102 N.2     1  UNL1       -0.0380
     16 C          64.7654   91.0630   13.1060 C.2     1  UNL1        0.2174
     17 C          65.5268   92.2412   12.5749 C.3     1  UNL1        0.1115
     18 C          65.9897   93.9491   10.6726 C.2     1  UNL1        0.3086
     19 N          65.2891   95.2566   10.4504 N.2     1  UNL1       -0.0995
     20 H          65.7889   96.0299   10.1019 H       1  UNL1        0.3633
     21 C          67.9212   93.8299    8.9392 C.3     1  UNL1        0.2504
     22 N          67.4519   93.8197   10.3638 N.pl3   1  UNL1       -0.2159
     23 H          68.1034   93.7281   11.0961 H       1  UNL1        0.2924
     24 N          64.0615   86.2790   13.8409 N.pl3   1  UNL1       -0.3329
     25 H          64.2825   86.9263   13.1329 H       1  UNL1        0.1466
     26 C          64.1106   84.8075   13.5538 C.3     1  UNL1        0.1211
     27 C          63.0678   84.1792   12.6775 C.3     1  UNL1        0.1522
     28 O          62.3883   82.9137   13.1096 O.3     1  UNL1       -0.3783
     29 H          62.7368   82.6378   13.9718 H       1  UNL1        0.2109
     30 C          62.7047   84.8164   11.3690 C.ar    1  UNL1        0.0067
     31 C          63.4223   84.4151   10.1145 C.ar    1  UNL1       -0.0018
     32 C          63.0591   85.0523    8.8061 C.ar    1  UNL1        0.0006
     33 C          61.9782   86.0909    8.7521 C.ar    1  UNL1        0.0114
     34 C          61.2606   86.4923   10.0066 C.ar    1  UNL1        0.0574
     35 CL         60.1797   87.5309    9.9527 Cl      1  UNL1       -0.0823
     36 C          61.6238   85.8551   11.3151 C.ar    1  UNL1        0.0095
@<TRIPOS>BOND
     1    21    22    1
     2    22    18    1
     3    18    19    2
     4    18     8    1
     5     8     9    2
     6     9    10    1
     7    10    11    1
     8    10    12    2
     9    12    13    1
    10    13    14    2
    11    14     1    1
    12     1     2    1
    13     2    24    1
    14    24    26    1
    15    26    27    1
    16    27    28    1
    17    27    30    1
    18    30    31   ar
    19    31    32   ar
    20    32    33   ar
    21    33    34   ar
    22    34    35    1
    23    34    36   ar
    24     2     3    2
    25     3     4    1
    26     4     5    2
    27     5     6    1
    28     6     7    2
    29    14    15    1
    30    15    16    2
    31    16    17    1
    32    17     8    1
    33    16    12    1
    34     6     1    1
    35    36    30   ar
    36    22    23    1
    37    19    20    1
    38    24    25    1
    39    28    29    1
@<TRIPOS>MOLECULE
*****
 36 39 0 0 0
SMALL
GASTEIGER

@<TRIPOS>ATOM
      1 C          63.2987   83.5551   13.5061 C.3     1  UNL1        0.2250
      2 C          62.7987   83.4055   12.0998 C.2     1  UNL1        0.0436
      3 C          62.7106   82.0441   11.4761 C.2     1  UNL1        0.0288
      4 C          63.1224   80.8324   12.2586 C.2     1  UNL1        0.0896
      5 N          63.6223   80.9821   13.6648 N.am    1  UNL1       -0.1770
      6 C          63.7105   82.3434   14.2886 C.2     1  UNL1        0.2627
      7 O          64.2104   82.4931   15.6949 O.2     1  UNL1       -0.2719
      8 C          63.9348   89.6481   15.5243 C.2     1  UNL1        0.0674
      9 C          63.4158   89.0898   16.8161 C.2     1  UNL1        0.0030
     10 C          63.0800   87.6317   16.9219 C.2     1  UNL1        0.0245
     11 C          62.5610   87.0734   18.2138 C.3     1  UNL1        0.0350
     12 C          63.2631   86.7320   15.7357 C.2     1  UNL1        0.2277
     13 N          63.0188   85.2648   15.5417 N.2     1  UNL1       -0.0345
     14 C          63.3868   84.9164   14.1299 C.2     1  UNL1        0.3649
     15 N          63.8585   86.1682   13.4514 N.2     1  UNL1       -0.0380
     16 C          63.7820   87.2904   14.4438 C.2     1  UNL1        0.2174
     17 C          64.1179   88.7484   14.3381 C.3     1  UNL1        0.1115
     18 C          64.2706   91.1063   15.4185 C.2     1  UNL1        0.3086
     19 N          63.7754   92.0673   16.4582 N.2     1  UNL1       -0.0995
     20 H          63.9959   93.0243   16.3887 H       1  UNL1        0.3633
     21 C          66.5957   91.6546   14.3971 C.3     1  UNL1        0.2504
     22 N          65.1017   91.6032   14.2730 N.pl3   1  UNL1       -0.2159
     23 H          64.6667   91.8956   13.4396 H       1  UNL1        0.2924
     24 N          62.3869   84.6170   11.3173 N.pl3   1  UNL1       -0.3329
     25 H          61.6520   85.1862   11.6418 H       1  UNL1        0.1466
     26 C          63.0946   84.9615   10.0404 C.3     1  UNL1        0.1211
     27 C          62.3736   85.7166    8.9634 C.3     1  UNL1        0.1522
     28 O          62.2706   85.1391    7.5829 O.3     1  UNL1       -0.3783
     29 H          62.7198   84.2797    7.5575 H       1  UNL1        0.2109
     30 C          61.7555   87.0492    9.2670 C.ar    1  UNL1        0.0067
     31 C          60.4688   87.4471    8.6068 C.ar    1  UNL1       -0.0018
     32 C          59.8507   88.7797    8.9104 C.ar    1  UNL1        0.0006
     33 C          60.5194   89.7145    9.8742 C.ar    1  UNL1        0.0114
     34 C          61.8062   89.3166   10.5344 C.ar    1  UNL1        0.0574
     35 CL         62.4749   90.2514   11.4983 Cl      1  UNL1       -0.0823
     36 C          62.4242   87.9840   10.2309 C.ar    1  UNL1        0.0095
@<TRIPOS>BOND
     1    21    22    1
     2    22    18    1
     3    18    19    2
     4    18     8    1
     5     8     9    2
     6     9    10    1
     7    10    11    1
     8    10    12    2
     9    12    13    1
    10    13    14    2
    11    14     1    1
    12     1     2    1
    13     2    24    1
    14    24    26    1
    15    26    27    1
    16    27    28    1
    17    27    30    1
    18    30    31   ar
    19    31    32   ar
    20    32    33   ar
    21    33    34   ar
    22    34    35    1
    23    34    36   ar
    24     2     3    2
    25     3     4    1
    26     4     5    2
    27     5     6    1
    28     6     7    2
    29    14    15    1
    30    15    16    2
    31    16    17    1
    32    17     8    1
    33    16    12    1
    34     6     1    1
    35    36    30   ar
    36    22    23    1
    37    19    20    1
    38    24    25    1
    39    28    29    1
@<TRIPOS>MOLECULE
*****
 36 39 0 0 0
SMALL
GASTEIGER

@<TRIPOS>ATOM
      1 C          63.2759   84.7335   13.3593 C.3     1  UNL1        0.2250
      2 C          62.7488   84.1790   12.0691 C.2     1  UNL1        0.0436
      3 C          62.4988   82.7062   11.9323 C.2     1  UNL1        0.0288
      4 C          62.7760   81.7881   13.0857 C.2     1  UNL1        0.0896
      5 N          63.3032   82.3426   14.3758 N.am    1  UNL1       -0.1770
      6 C          63.5531   83.8154   14.5126 C.2     1  UNL1        0.2627
      7 O          64.0803   84.3699   15.8028 O.2     1  UNL1       -0.2719
      8 C          64.6380   90.9099   14.6242 C.2     1  UNL1        0.0674
      9 C          64.0492   91.1363   13.2634 C.2     1  UNL1        0.0030
     10 C          63.5382   89.9742   12.4644 C.2     1  UNL1        0.0245
     11 C          62.9493   90.2007   11.1035 C.3     1  UNL1        0.0350
     12 C          63.6162   88.5856   13.0263 C.2     1  UNL1        0.2277
     13 N          63.1964   87.2550   12.4756 N.2     1  UNL1       -0.0345
     14 C          63.5259   86.2062   13.4961 C.2     1  UNL1        0.3649
     15 N          64.1493   86.8886   14.6775 N.2     1  UNL1       -0.0380
     16 C          64.2051   88.3592   14.3872 C.2     1  UNL1        0.2174
     17 C          64.7160   89.5213   15.1861 C.3     1  UNL1        0.1115
     18 C          65.1490   92.0721   15.4233 C.2     1  UNL1        0.3086
     19 N          64.4037   92.5301   16.6416 N.2     1  UNL1       -0.0995
     20 H          64.7391   93.2929   17.1660 H       1  UNL1        0.3633
     21 C          67.5616   92.8769   15.9540 C.3     1  UNL1        0.2504
     22 N          66.4053   92.7760   15.0038 N.pl3   1  UNL1       -0.2159
     23 H          66.4711   93.1719   14.1048 H       1  UNL1        0.2924
     24 N          62.4716   85.0970   10.9157 N.pl3   1  UNL1       -0.3329
     25 H          61.8051   85.8158   11.0079 H       1  UNL1        0.1466
     26 C          63.2097   84.9200    9.6220 C.3     1  UNL1        0.1211
     27 C          62.5465   85.2781    8.3251 C.3     1  UNL1        0.1522
     28 O          63.0780   84.7294    7.0342 O.3     1  UNL1       -0.3783
     29 H          63.8466   84.1658    7.2146 H       1  UNL1        0.2109
     30 C          61.3517   86.1851    8.3191 C.ar    1  UNL1        0.0067
     31 C          60.1182   85.7955    7.5598 C.ar    1  UNL1       -0.0018
     32 C          58.9234   86.7024    7.5538 C.ar    1  UNL1        0.0006
     33 C          58.9622   87.9990    8.3071 C.ar    1  UNL1        0.0114
     34 C          60.1957   88.3885    9.0664 C.ar    1  UNL1        0.0574
     35 CL         60.2345   89.6850    9.8198 Cl      1  UNL1       -0.0823
     36 C          61.3905   87.4816    9.0724 C.ar    1  UNL1        0.0095
@<TRIPOS>BOND
     1    21    22    1
     2    22    18    1
     3    18    19    2
     4    18     8    1
     5     8     9    2
     6     9    10    1
     7    10    11    1
     8    10    12    2
     9    12    13    1
    10    13    14    2
    11    14     1    1
    12     1     2    1
    13     2    24    1
    14    24    26    1
    15    26    27    1
    16    27    28    1
    17    27    30    1
    18    30    31   ar
    19    31    32   ar
    20    32    33   ar
    21    33    34   ar
    22    34    35    1
    23    34    36   ar
    24     2     3    2
    25     3     4    1
    26     4     5    2
    27     5     6    1
    28     6     7    2
    29    14    15    1
    30    15    16    2
    31    16    17    1
    32    17     8    1
    33    16    12    1
    34     6     1    1
    35    36    30   ar
    36    22    23    1
    37    19    20    1
    38    24    25    1
    39    28    29    1
@<TRIPOS>MOLECULE
*****
 36 39 0 0 0
SMALL
GASTEIGER

@<TRIPOS>ATOM
      1 C          60.7275   87.6019    9.2859 C.3     1  UNL1        0.2250
      2 C          60.6123   88.9982    9.8217 C.2     1  UNL1        0.0436
      3 C          59.9320   90.0597    9.0088 C.2     1  UNL1        0.0288
      4 C          59.3670   89.7248    7.6603 C.2     1  UNL1        0.0896
      5 N          59.4822   88.3285    7.1245 N.am    1  UNL1       -0.1770
      6 C          60.1625   87.2671    7.9373 C.2     1  UNL1        0.2627
      7 O          60.2777   85.8708    7.4015 O.2     1  UNL1       -0.2719
      8 C          63.2856   83.3182   13.3735 C.2     1  UNL1        0.0674
      9 C          63.9795   82.8191   12.1410 C.2     1  UNL1        0.0030
     10 C          63.7375   83.4887   10.8207 C.2     1  UNL1        0.0245
     11 C          64.4315   82.9895    9.5881 C.3     1  UNL1        0.0350
     12 C          62.8014   84.6575   10.7331 C.2     1  UNL1        0.2277
     13 N          62.3690   85.5128    9.5792 N.2     1  UNL1       -0.0345
     14 C          61.4077   86.5405   10.0987 C.2     1  UNL1        0.3649
     15 N          61.2461   86.3204   11.5736 N.2     1  UNL1       -0.0380
     16 C          62.1075   85.1566   11.9657 C.2     1  UNL1        0.2174
     17 C          62.3496   84.4870   13.2859 C.3     1  UNL1        0.1115
     18 C          63.5277   82.6485   14.6938 C.2     1  UNL1        0.3086
     19 N          64.4957   83.2459   15.6714 N.2     1  UNL1       -0.0995
     20 H          64.6545   82.8064   16.5379 H       1  UNL1        0.3633
     21 C          61.5422   81.0181   14.3071 C.3     1  UNL1        0.2504
     22 N          62.8018   81.3813   15.0362 N.pl3   1  UNL1       -0.2159
     23 H          63.1520   80.7880   15.7394 H       1  UNL1        0.2924
     24 N          61.1772   89.3331   11.1702 N.pl3   1  UNL1       -0.3329
     25 H          60.6662   89.1208   11.9845 H       1  UNL1        0.1466
     26 C          62.5207   89.9914   11.2782 C.3     1  UNL1        0.1211
     27 C          63.4510   89.6187   12.3942 C.3     1  UNL1        0.1522
     28 O          63.4447   88.2219   12.9410 O.3     1  UNL1       -0.3783
     29 H          62.7861   87.6916   12.4657 H       1  UNL1        0.2109
     30 C          64.3877   90.6427   12.9634 C.ar    1  UNL1        0.0067
     31 C          64.9559   90.4569   14.3391 C.ar    1  UNL1       -0.0018
     32 C          65.8926   91.4810   14.9084 C.ar    1  UNL1        0.0006
     33 C          66.2610   92.6908   14.1019 C.ar    1  UNL1        0.0114
     34 C          65.6928   92.8766   12.7262 C.ar    1  UNL1        0.0574
     35 CL         66.0613   94.0865   11.9197 Cl      1  UNL1       -0.0823
     36 C          64.7562   91.8526   12.1570 C.ar    1  UNL1        0.0095
@<TRIPOS>BOND
     1    21    22    1
     2    22    18    1
     3    18    19    2
     4    18     8    1
     5     8     9    2
     6     9    10    1
     7    10    11    1
     8    10    12    2
     9    12    13    1
    10    13    14    2
    11    14     1    1
    12     1     2    1
    13     2    24    1
    14    24    26    1
    15    26    27    1
    16    27    28    1
    17    27    30    1
    18    30    31   ar
    19    31    32   ar
    20    32    33   ar
    21    33    34   ar
    22    34    35    1
    23    34    36   ar
    24     2     3    2
    25     3     4    1
    26     4     5    2
    27     5     6    1
    28     6     7    2
    29    14    15    1
    30    15    16    2
    31    16    17    1
    32    17     8    1
    33    16    12    1
    34     6     1    1
    35    36    30   ar
    36    22    23    1
    37    19    20    1
    38    24    25    1
    39    28    29    1
@<TRIPOS>MOLECULE
*****
 36 39 0 0 0
SMALL
GASTEIGER

@<TRIPOS>ATOM
      1 C          60.5642   87.4618    8.7902 C.3     1  UNL1        0.2250
      2 C          60.5078   88.9365    9.0588 C.2     1  UNL1        0.0436
      3 C          59.7887   89.8453    8.1064 C.2     1  UNL1        0.0288
      4 C          59.1259   89.2794    6.8855 C.2     1  UNL1        0.0896
      5 N          59.1823   87.8048    6.6169 N.am    1  UNL1       -0.1770
      6 C          59.9014   86.8960    7.5693 C.2     1  UNL1        0.2627
      7 O          59.9578   85.4213    7.3007 O.2     1  UNL1       -0.2719
      8 C          63.3044   83.9245   13.4358 C.2     1  UNL1        0.0674
      9 C          63.9663   83.2362   12.2791 C.2     1  UNL1        0.0030
     10 C          63.6745   83.6791   10.8759 C.2     1  UNL1        0.0245
     11 C          64.3366   82.9907    9.7192 C.3     1  UNL1        0.0350
     12 C          62.7208   84.8103   10.6296 C.2     1  UNL1        0.2277
     13 N          62.2415   85.4619    9.3664 N.2     1  UNL1       -0.0345
     14 C          61.2833   86.5530    9.7425 C.2     1  UNL1        0.3649
     15 N          61.1704   86.5757   11.2381 N.2     1  UNL1       -0.0380
     16 C          62.0589   85.4986   11.7863 C.2     1  UNL1        0.2174
     17 C          62.3506   85.0557   13.1894 C.3     1  UNL1        0.1115
     18 C          63.5961   83.4816   14.8390 C.2     1  UNL1        0.3086
     19 N          62.9328   82.2551   15.3916 N.2     1  UNL1       -0.0995
     20 H          63.1243   81.9645   16.3125 H       1  UNL1        0.3633
     21 C          65.0526   85.5990   15.2202 C.3     1  UNL1        0.2504
     22 N          64.5513   84.2654   15.6894 N.pl3   1  UNL1       -0.2159
     23 H          64.8493   83.9045   16.5556 H       1  UNL1        0.2924
     24 N          61.1705   89.5024   10.2796 N.pl3   1  UNL1       -0.3329
     25 H          60.6247   89.7961   11.0445 H       1  UNL1        0.1466
     26 C          62.6648   89.6209   10.3351 C.3     1  UNL1        0.1211
     27 C          63.2995   90.9132   10.7558 C.3     1  UNL1        0.1522
     28 O          63.3221   92.0796    9.8129 O.3     1  UNL1       -0.3783
     29 H          62.8881   91.8318    8.9815 H       1  UNL1        0.2109
     30 C          63.9116   91.0392   12.1194 C.ar    1  UNL1        0.0067
     31 C          65.0362   92.0045   12.3505 C.ar    1  UNL1       -0.0018
     32 C          65.6483   92.1304   13.7141 C.ar    1  UNL1        0.0006
     33 C          65.1358   91.2910   14.8467 C.ar    1  UNL1        0.0114
     34 C          64.0113   90.3257   14.6156 C.ar    1  UNL1        0.0574
     35 CL         63.4988   89.4863   15.7482 Cl      1  UNL1       -0.0823
     36 C          63.3991   90.1998   13.2520 C.ar    1  UNL1        0.0095
@<TRIPOS>BOND
     1    21    22    1
     2    22    18    1
     3    18    19    2
     4    18     8    1
     5     8     9    2
     6     9    10    1
     7    10    11    1
     8    10    12    2
     9    12    13    1
    10    13    14    2
    11    14     1    1
    12     1     2    1
    13     2    24    1
    14    24    26    1
    15    26    27    1
    16    27    28    1
    17    27    30    1
    18    30    31   ar
    19    31    32   ar
    20    32    33   ar
    21    33    34   ar
    22    34    35    1
    23    34    36   ar
    24     2     3    2
    25     3     4    1
    26     4     5    2
    27     5     6    1
    28     6     7    2
    29    14    15    1
    30    15    16    2
    31    16    17    1
    32    17     8    1
    33    16    12    1
    34     6     1    1
    35    36    30   ar
    36    22    23    1
    37    19    20    1
    38    24    25    1
    39    28    29    1
@<TRIPOS>MOLECULE
*****
 36 39 0 0 0
SMALL
GASTEIGER

@<TRIPOS>ATOM
      1 C          64.4365   91.0399   12.8879 C.3     1  UNL1        0.2250
      2 C          64.8944   90.5043   14.2120 C.2     1  UNL1        0.0436
      3 C          66.0235   91.1709   14.9408 C.2     1  UNL1        0.0288
      4 C          66.6945   92.3731   14.3454 C.2     1  UNL1        0.0896
      5 N          66.2365   92.9087   13.0212 N.am    1  UNL1       -0.1770
      6 C          65.1075   92.2421   12.2925 C.2     1  UNL1        0.2627
      7 O          64.6495   92.7777   10.9684 O.2     1  UNL1       -0.2719
      8 C          60.0404   88.1453    9.1597 C.2     1  UNL1        0.0674
      9 C          59.1892   88.2409   10.3910 C.2     1  UNL1        0.0030
     10 C          59.7412   88.8660   11.6379 C.2     1  UNL1        0.0245
     11 C          58.8898   88.9616   12.8692 C.3     1  UNL1        0.0350
     12 C          61.1446   89.3954   11.6533 C.2     1  UNL1        0.2277
     13 N          61.9552   90.0589   12.7269 N.2     1  UNL1       -0.0345
     14 C          63.3075   90.3733   12.1591 C.2     1  UNL1        0.3649
     15 N          63.3326   89.9042   10.7346 N.2     1  UNL1       -0.0380
     16 C          61.9959   89.2998   10.4220 C.2     1  UNL1        0.2174
     17 C          61.4438   88.6748    9.1752 C.3     1  UNL1        0.1115
     18 C          59.4884   87.5202    7.9129 C.2     1  UNL1        0.3086
     19 N          59.6456   86.0469    7.6796 N.2     1  UNL1       -0.0995
     20 H          59.2832   85.6367    6.8612 H       1  UNL1        0.3633
     21 C          59.4142   89.6343    6.4045 C.3     1  UNL1        0.2504
     22 N          58.7792   88.3686    6.8994 N.pl3   1  UNL1       -0.2159
     23 H          57.8969   88.0948    6.5589 H       1  UNL1        0.2924
     24 N          64.2235   89.3022   14.8075 N.pl3   1  UNL1       -0.3329
     25 H          63.4463   89.4158   15.4011 H       1  UNL1        0.1466
     26 C          64.7366   87.9269   14.4986 C.3     1  UNL1        0.1211
     27 C          63.8814   86.7269   14.7791 C.3     1  UNL1        0.1522
     28 O          63.3133   86.5149   16.1510 O.3     1  UNL1       -0.3783
     29 H          63.5929   87.2394   16.7323 H       1  UNL1        0.2109
     30 C          63.5945   85.7388   13.6876 C.ar    1  UNL1        0.0067
     31 C          62.9654   86.1988   12.4059 C.ar    1  UNL1       -0.0018
     32 C          62.6785   85.2107   11.3144 C.ar    1  UNL1        0.0006
     33 C          63.0205   83.7627   11.5045 C.ar    1  UNL1        0.0114
     34 C          63.6495   83.3028   12.7862 C.ar    1  UNL1        0.0574
     35 CL         63.9916   81.8547   12.9764 Cl      1  UNL1       -0.0823
     36 C          63.9365   84.2908   13.8777 C.ar    1  UNL1        0.0095
@<TRIPOS>BOND
     1    21    22    1
     2    22    18    1
     3    18    19    2
     4    18     8    1
     5     8     9    2
     6     9    10    1
     7    10    11    1
     8    10    12    2
     9    12    13    1
    10    13    14    2
    11    14     1    1
    12     1     2    1
    13     2    24    1
    14    24    26    1
    15    26    27    1
    16    27    28    1
    17    27    30    1
    18    30    31   ar
    19    31    32   ar
    20    32    33   ar
    21    33    34   ar
    22    34    35    1
    23    34    36   ar
    24     2     3    2
    25     3     4    1
    26     4     5    2
    27     5     6    1
    28     6     7    2
    29    14    15    1
    30    15    16    2
    31    16    17    1
    32    17     8    1
    33    16    12    1
    34     6     1    1
    35    36    30   ar
    36    22    23    1
    37    19    20    1
    38    24    25    1
    39    28    29    1
@<TRIPOS>MOLECULE
*****
 36 39 0 0 0
SMALL
GASTEIGER

@<TRIPOS>ATOM
      1 C          63.4802   83.6104   13.5587 C.3     1  UNL1        0.2250
      2 C          63.1016   83.4746   12.1137 C.2     1  UNL1        0.0436
      3 C          63.0501   82.1177   11.4762 C.2     1  UNL1        0.0288
      4 C          63.3771   80.8967   12.2837 C.2     1  UNL1        0.0896
      5 N          63.7557   81.0325   13.7288 N.am    1  UNL1       -0.1770
      6 C          63.8073   82.3894   14.3663 C.2     1  UNL1        0.2627
      7 O          64.1859   82.5251   15.8113 O.2     1  UNL1       -0.2719
      8 C          63.9936   89.6896   15.6523 C.2     1  UNL1        0.0674
      9 C          63.4078   89.1207   16.9105 C.2     1  UNL1        0.0030
     10 C          63.0702   87.6612   16.9875 C.2     1  UNL1        0.0245
     11 C          62.4844   87.0923   18.2459 C.3     1  UNL1        0.0350
     12 C          63.3184   86.7706   15.8063 C.2     1  UNL1        0.2277
     13 N          63.0883   85.3044   15.5889 N.2     1  UNL1       -0.0345
     14 C          63.5319   84.9672   14.1962 C.2     1  UNL1        0.3649
     15 N          64.0361   86.2249   13.5530 N.2     1  UNL1       -0.0380
     16 C          63.9042   87.3396   14.5481 C.2     1  UNL1        0.2174
     17 C          64.2418   88.7990   14.4711 C.3     1  UNL1        0.1115
     18 C          64.3312   91.1491   15.5752 C.2     1  UNL1        0.3086
     19 N          63.6629   92.1233   16.4993 N.2     1  UNL1       -0.0995
     20 H          63.8845   93.0812   16.4486 H       1  UNL1        0.3633
     21 C          64.9224   91.8826   13.1539 C.3     1  UNL1        0.2504
     22 N          65.3372   91.6343   14.5739 N.pl3   1  UNL1       -0.2159
     23 H          66.2697   91.7897   14.8487 H       1  UNL1        0.2924
     24 N          62.7746   84.6956   11.3061 N.pl3   1  UNL1       -0.3329
     25 H          63.2181   84.8463   10.4401 H       1  UNL1        0.1466
     26 C          61.7719   85.6869   11.8177 C.3     1  UNL1        0.1211
     27 C          61.4423   86.9060   11.0084 C.3     1  UNL1        0.1522
     28 O          61.6870   88.2724   11.5768 O.3     1  UNL1       -0.3783
     29 H          62.0579   88.1896   12.4693 H       1  UNL1        0.2109
     30 C          60.8680   86.7588    9.6305 C.ar    1  UNL1        0.0067
     31 C          59.6834   87.5821    9.2197 C.ar    1  UNL1       -0.0018
     32 C          59.1091   87.4349    7.8419 C.ar    1  UNL1        0.0006
     33 C          59.7194   86.4642    6.8747 C.ar    1  UNL1        0.0114
     34 C          60.9040   85.6409    7.2855 C.ar    1  UNL1        0.0574
     35 CL         61.5143   84.6702    6.3184 Cl      1  UNL1       -0.0823
     36 C          61.4783   85.7881    8.6634 C.ar    1  UNL1        0.0095
@<TRIPOS>BOND
     1    21    22    1
     2    22    18    1
     3    18    19    2
     4    18     8    1
     5     8     9    2
     6     9    10    1
     7    10    11    1
     8    10    12    2
     9    12    13    1
    10    13    14    2
    11    14     1    1
    12     1     2    1
    13     2    24    1
    14    24    26    1
    15    26    27    1
    16    27    28    1
    17    27    30    1
    18    30    31   ar
    19    31    32   ar
    20    32    33   ar
    21    33    34   ar
    22    34    35    1
    23    34    36   ar
    24     2     3    2
    25     3     4    1
    26     4     5    2
    27     5     6    1
    28     6     7    2
    29    14    15    1
    30    15    16    2
    31    16    17    1
    32    17     8    1
    33    16    12    1
    34     6     1    1
    35    36    30   ar
    36    22    23    1
    37    19    20    1
    38    24    25    1
    39    28    29    1
