@<TRIPOS>MOLECULE
*****
 28 31 0 0 0
SMALL
GASTEIGER

@<TRIPOS>ATOM
      1 C          62.2706   86.9105   17.9352 C.3     1  UNL1        0.0233
      2 C          63.0465   87.5192   16.8049 C.3     1  UNL1        0.0956
      3 C          63.1731   89.0101   16.6995 C.3     1  UNL1        0.1135
      4 N          63.9490   89.6189   15.5692 N.am    1  UNL1       -0.2726
      5 C          64.0756   91.1098   15.4638 C.2     1  UNL1        0.2491
      6 O          63.4263   91.9920   16.4886 O.2     1  UNL1       -0.2699
      7 C          64.5983   88.7367   14.5444 C.3     1  UNL1        0.1152
      8 C          64.4716   87.2458   14.6499 C.3     1  UNL1        0.1153
      9 N          63.6958   86.6371   15.7801 N.am    1  UNL1       -0.2716
     10 C          63.5691   85.1462   15.8856 C.2     1  UNL1        0.2883
     11 O          62.7932   84.5374   17.0158 O.2     1  UNL1       -0.2664
     12 C          64.8514   91.7186   14.3336 C.ar    1  UNL1        0.0536
     13 C          66.1449   92.4269   14.6076 C.ar    1  UNL1        0.0045
     14 C          66.9208   93.0356   13.4774 C.ar    1  UNL1        0.0001
     15 C          66.4032   92.9360   12.0730 C.ar    1  UNL1        0.0000
     16 C          65.1097   92.2277   11.7990 C.ar    1  UNL1        0.0001
     17 C          64.3338   91.6190   12.9293 C.ar    1  UNL1        0.0045
     18 C          64.2184   84.2639   14.8607 C.2     1  UNL1        0.2502
     19 O          65.6586   84.4717   14.4967 O.2     1  UNL1       -0.2817
     20 C          63.4274   83.1740   14.2001 C.2     1  UNL1        0.0639
     21 C          62.3373   82.3650   14.8381 C.2     1  UNL1        0.1019
     22 N          61.8239   81.3928   13.8178 N.2     1  UNL1       -0.2460
     23 C          62.5967   81.6009   12.5491 C.2     1  UNL1        0.0837
     24 C          62.5261   80.9302   11.2093 C.3     1  UNL1        0.1708
     25 N          63.4465   81.3603   10.1058 N.2     1  UNL1       -0.2624
     26 C          64.4376   82.4612   10.3422 C.2     1  UNL1        0.0936
     27 C          64.5082   83.1319   11.6820 C.2     1  UNL1        0.0216
     28 C          63.5878   82.7018   12.7854 C.2     1  UNL1        0.0218
@<TRIPOS>BOND
     1     2     1    1
     2     2     3    1
     3     3     4    1
     4     4     5   am
     5     5     6    2
     6     5    12    1
     7    12    13   ar
     8    13    14   ar
     9    14    15   ar
    10    15    16   ar
    11    16    17   ar
    12     4     7    1
    13     7     8    1
    14     8     9    1
    15     9    10   am
    16    10    11    2
    17    10    18    1
    18    18    19    2
    19    18    20    1
    20    20    21    2
    21    21    22    1
    22    22    23    2
    23    23    24    1
    24    24    25    1
    25    25    26    2
    26    26    27    1
    27    27    28    2
    28     9     2    1
    29    28    20    1
    30    17    12   ar
    31    28    23    1
@<TRIPOS>MOLECULE
*****
 28 31 0 0 0
SMALL
GASTEIGER

@<TRIPOS>ATOM
      1 C          61.5106   88.6566   10.1386 C.3     1  UNL1        0.0233
      2 C          62.5066   88.8532   11.2429 C.3     1  UNL1        0.0956
      3 C          63.1133   90.2054   11.4737 C.3     1  UNL1        0.1135
      4 N          64.1093   90.4020   12.5780 N.am    1  UNL1       -0.2726
      5 C          64.7160   91.7543   12.8088 C.2     1  UNL1        0.2491
      6 O          64.3268   92.9100   11.9354 O.2     1  UNL1       -0.2699
      7 C          64.4986   89.2464   13.4514 C.3     1  UNL1        0.1152
      8 C          63.8918   87.8941   13.2206 C.3     1  UNL1        0.1153
      9 N          62.8959   87.6976   12.1163 N.am    1  UNL1       -0.2716
     10 C          62.2891   86.3453   11.8855 C.2     1  UNL1        0.2883
     11 O          61.2932   86.1488   10.7812 O.2     1  UNL1       -0.2664
     12 C          65.7120   91.9509   13.9130 C.ar    1  UNL1        0.0536
     13 C          65.2388   92.1774   15.3183 C.ar    1  UNL1        0.0045
     14 C          66.2348   92.3740   16.4225 C.ar    1  UNL1        0.0001
     15 C          67.7040   92.3440   16.1216 C.ar    1  UNL1        0.0000
     16 C          68.1771   92.1174   14.7163 C.ar    1  UNL1        0.0001
     17 C          67.1812   91.9209   13.6121 C.ar    1  UNL1        0.0045
     18 C          62.6784   85.1896   12.7589 C.2     1  UNL1        0.2502
     19 O          62.7832   85.3738   14.2438 O.2     1  UNL1       -0.2817
     20 C          62.9628   83.8497   12.1474 C.2     1  UNL1        0.0639
     21 C          63.6834   83.6056   10.8547 C.2     1  UNL1        0.1019
     22 N          63.7424   82.1238   10.6296 N.2     1  UNL1       -0.2460
     23 C          63.0582   81.4521   11.7831 C.2     1  UNL1        0.0837
     24 C          62.8118   80.0069   12.1005 C.3     1  UNL1        0.1708
     25 N          62.0834   79.6285   13.3560 N.2     1  UNL1       -0.2624
     26 C          61.6015   80.6952   14.2940 C.2     1  UNL1        0.0936
     27 C          61.8480   82.1403   13.9766 C.2     1  UNL1        0.0216
     28 C          62.5764   82.5188   12.7212 C.2     1  UNL1        0.0218
@<TRIPOS>BOND
     1     2     1    1
     2     2     3    1
     3     3     4    1
     4     4     5   am
     5     5     6    2
     6     5    12    1
     7    12    13   ar
     8    13    14   ar
     9    14    15   ar
    10    15    16   ar
    11    16    17   ar
    12     4     7    1
    13     7     8    1
    14     8     9    1
    15     9    10   am
    16    10    11    2
    17    10    18    1
    18    18    19    2
    19    18    20    1
    20    20    21    2
    21    21    22    1
    22    22    23    2
    23    23    24    1
    24    24    25    1
    25    25    26    2
    26    26    27    1
    27    27    28    2
    28     9     2    1
    29    28    20    1
    30    17    12   ar
    31    28    23    1
@<TRIPOS>MOLECULE
*****
 28 31 0 0 0
SMALL
GASTEIGER

@<TRIPOS>ATOM
      1 C          62.2736   86.8204   17.7102 C.3     1  UNL1        0.0233
      2 C          63.0765   87.5380   16.6659 C.3     1  UNL1        0.0956
      3 C          63.2059   89.0316   16.7145 C.3     1  UNL1        0.1135
      4 N          64.0087   89.7493   15.6703 N.am    1  UNL1       -0.2726
      5 C          64.1381   91.2429   15.7189 C.2     1  UNL1        0.2491
      6 O          63.4647   92.0189   16.8118 O.2     1  UNL1       -0.2699
      7 C          64.6822   88.9733   14.5774 C.3     1  UNL1        0.1152
      8 C          64.5528   87.4797   14.5288 C.3     1  UNL1        0.1153
      9 N          63.7499   86.7621   15.5731 N.am    1  UNL1       -0.2716
     10 C          63.6205   85.2685   15.5245 C.2     1  UNL1        0.2883
     11 O          62.8176   84.5509   16.5687 O.2     1  UNL1       -0.2664
     12 C          64.9410   91.9605   14.6747 C.ar    1  UNL1        0.0536
     13 C          64.5769   91.8272   13.2257 C.ar    1  UNL1        0.0045
     14 C          65.3797   92.5448   12.1815 C.ar    1  UNL1        0.0001
     15 C          66.5468   93.3958   12.5862 C.ar    1  UNL1        0.0000
     16 C          66.9109   93.5291   14.0352 C.ar    1  UNL1        0.0001
     17 C          66.1080   92.8115   15.0794 C.ar    1  UNL1        0.0045
     18 C          64.2939   84.4924   14.4316 C.2     1  UNL1        0.2502
     19 O          65.7117   84.0334   14.6019 O.2     1  UNL1       -0.2817
     20 C          63.5495   84.1755   13.1685 C.2     1  UNL1        0.0639
     21 C          63.2501   82.8032   12.6422 C.2     1  UNL1        0.1019
     22 N          62.4894   82.9549   11.3584 N.2     1  UNL1       -0.2460
     23 C          62.3186   84.4210   11.0912 C.2     1  UNL1        0.0837
     24 C          61.6512   85.1665    9.9738 C.3     1  UNL1        0.1708
     25 N          61.6389   86.6664    9.9751 N.2     1  UNL1       -0.2624
     26 C          62.2942   87.4208   11.0938 C.2     1  UNL1        0.0936
     27 C          62.9616   86.6753   12.2112 C.2     1  UNL1        0.0216
     28 C          62.9738   85.1754   12.2099 C.2     1  UNL1        0.0218
@<TRIPOS>BOND
     1     2     1    1
     2     2     3    1
     3     3     4    1
     4     4     5   am
     5     5     6    2
     6     5    12    1
     7    12    13   ar
     8    13    14   ar
     9    14    15   ar
    10    15    16   ar
    11    16    17   ar
    12     4     7    1
    13     7     8    1
    14     8     9    1
    15     9    10   am
    16    10    11    2
    17    10    18    1
    18    18    19    2
    19    18    20    1
    20    20    21    2
    21    21    22    1
    22    22    23    2
    23    23    24    1
    24    24    25    1
    25    25    26    2
    26    26    27    1
    27    27    28    2
    28     9     2    1
    29    28    20    1
    30    17    12   ar
    31    28    23    1
@<TRIPOS>MOLECULE
*****
 28 31 0 0 0
SMALL
GASTEIGER

@<TRIPOS>ATOM
      1 C          63.1525   87.6081   17.5889 C.3     1  UNL1        0.0233
      2 C          63.2996   87.0438   16.2069 C.3     1  UNL1        0.0956
      3 C          63.2802   85.5586   15.9972 C.3     1  UNL1        0.1135
      4 N          63.4273   84.9943   14.6153 N.am    1  UNL1       -0.2726
      5 C          63.4079   83.5091   14.4057 C.2     1  UNL1        0.2491
      6 O          63.2415   82.5883   15.5780 O.2     1  UNL1       -0.2699
      7 C          63.5938   85.9150   13.4429 C.3     1  UNL1        0.1152
      8 C          63.6132   87.4002   13.6525 C.3     1  UNL1        0.1153
      9 N          63.4661   87.9645   15.0345 N.am    1  UNL1       -0.2716
     10 C          63.4854   89.4497   15.2442 C.2     1  UNL1        0.2883
     11 O          63.3383   90.0140   16.6261 O.2     1  UNL1       -0.2664
     12 C          63.5551   82.9447   13.0237 C.ar    1  UNL1        0.0536
     13 C          64.5157   83.5703   12.0564 C.ar    1  UNL1        0.0045
     14 C          64.6629   83.0060   10.6745 C.ar    1  UNL1        0.0001
     15 C          63.8492   81.8160   10.2597 C.ar    1  UNL1        0.0000
     16 C          62.8885   81.1904   11.2270 C.ar    1  UNL1        0.0001
     17 C          62.7414   81.7548   12.6090 C.ar    1  UNL1        0.0045
     18 C          63.6519   90.3705   14.0718 C.2     1  UNL1        0.2502
     19 O          62.7425   90.2462   12.8855 O.2     1  UNL1       -0.2817
     20 C          64.7279   91.4156   14.0858 C.2     1  UNL1        0.0639
     21 C          65.4892   91.8810   15.2915 C.2     1  UNL1        0.1019
     22 N          66.4632   92.9318   14.8474 N.2     1  UNL1       -0.2460
     23 C          66.3038   93.1157   13.3672 C.2     1  UNL1        0.0837
     24 C          66.9967   94.0154   12.3873 C.3     1  UNL1        0.1708
     25 N          66.6171   93.9781   10.9366 N.2     1  UNL1       -0.2624
     26 C          65.5446   93.0410   10.4659 C.2     1  UNL1        0.0936
     27 C          64.8517   92.1413   11.4459 C.2     1  UNL1        0.0216
     28 C          65.2313   92.1787   12.8965 C.2     1  UNL1        0.0218
@<TRIPOS>BOND
     1     2     1    1
     2     2     3    1
     3     3     4    1
     4     4     5   am
     5     5     6    2
     6     5    12    1
     7    12    13   ar
     8    13    14   ar
     9    14    15   ar
    10    15    16   ar
    11    16    17   ar
    12     4     7    1
    13     7     8    1
    14     8     9    1
    15     9    10   am
    16    10    11    2
    17    10    18    1
    18    18    19    2
    19    18    20    1
    20    20    21    2
    21    21    22    1
    22    22    23    2
    23    23    24    1
    24    24    25    1
    25    25    26    2
    26    26    27    1
    27    27    28    2
    28     9     2    1
    29    28    20    1
    30    17    12   ar
    31    28    23    1
@<TRIPOS>MOLECULE
*****
 28 31 0 0 0
SMALL
GASTEIGER

@<TRIPOS>ATOM
      1 C          62.2651   86.7221   17.6042 C.3     1  UNL1        0.0233
      2 C          63.1010   87.4730   16.6105 C.3     1  UNL1        0.0956
      3 C          63.1593   88.9711   16.6594 C.3     1  UNL1        0.1135
      4 N          63.9952   89.7219   15.6657 N.am    1  UNL1       -0.2726
      5 C          64.0534   91.2200   15.7147 C.2     1  UNL1        0.2491
      6 O          63.2758   91.9673   16.7572 O.2     1  UNL1       -0.2699
      7 C          64.7728   88.9748   14.6231 C.3     1  UNL1        0.1152
      8 C          64.7145   87.4768   14.5742 C.3     1  UNL1        0.1153
      9 N          63.8786   86.7259   15.5679 N.am    1  UNL1       -0.2716
     10 C          63.8203   85.2278   15.5190 C.2     1  UNL1        0.2883
     11 O          62.9844   84.4769   16.5127 O.2     1  UNL1       -0.2664
     12 C          64.8894   91.9709   14.7210 C.ar    1  UNL1        0.0536
     13 C          64.5748   91.8822   13.2571 C.ar    1  UNL1        0.0045
     14 C          65.4107   92.6330   12.2634 C.ar    1  UNL1        0.0001
     15 C          66.5613   93.4727   12.7336 C.ar    1  UNL1        0.0000
     16 C          66.8759   93.5615   14.1976 C.ar    1  UNL1        0.0001
     17 C          66.0399   92.8106   15.1912 C.ar    1  UNL1        0.0045
     18 C          64.5980   84.4806   14.4764 C.2     1  UNL1        0.2502
     19 O          66.0876   84.3544   14.5990 O.2     1  UNL1       -0.2817
     20 C          63.8860   83.8596   13.3113 C.2     1  UNL1        0.0639
     21 C          63.4262   84.5752   12.0758 C.2     1  UNL1        0.1019
     22 N          62.7648   83.5719   11.1781 N.2     1  UNL1       -0.2460
     23 C          62.8158   82.2362   11.8588 C.2     1  UNL1        0.0837
     24 C          62.3208   80.8810   11.4485 C.3     1  UNL1        0.1708
     25 N          62.5187   79.7037   12.3566 N.2     1  UNL1       -0.2624
     26 C          63.2116   79.8815   13.6750 C.2     1  UNL1        0.0936
     27 C          63.7066   81.2367   14.0853 C.2     1  UNL1        0.0216
     28 C          63.5087   82.4140   13.1773 C.2     1  UNL1        0.0218
@<TRIPOS>BOND
     1     2     1    1
     2     2     3    1
     3     3     4    1
     4     4     5   am
     5     5     6    2
     6     5    12    1
     7    12    13   ar
     8    13    14   ar
     9    14    15   ar
    10    15    16   ar
    11    16    17   ar
    12     4     7    1
    13     7     8    1
    14     8     9    1
    15     9    10   am
    16    10    11    2
    17    10    18    1
    18    18    19    2
    19    18    20    1
    20    20    21    2
    21    21    22    1
    22    22    23    2
    23    23    24    1
    24    24    25    1
    25    25    26    2
    26    26    27    1
    27    27    28    2
    28     9     2    1
    29    28    20    1
    30    17    12   ar
    31    28    23    1
@<TRIPOS>MOLECULE
*****
 28 31 0 0 0
SMALL
GASTEIGER

@<TRIPOS>ATOM
      1 C          64.6349   90.0642   15.1415 C.3     1  UNL1        0.0233
      2 C          64.1946   88.8567   14.3682 C.3     1  UNL1        0.0956
      3 C          64.3145   87.4912   14.9774 C.3     1  UNL1        0.1135
      4 N          63.8742   86.2837   14.2041 N.am    1  UNL1       -0.2726
      5 C          63.9941   84.9182   14.8134 C.2     1  UNL1        0.2491
      6 O          64.5543   84.7603   16.1959 O.2     1  UNL1       -0.2699
      7 C          63.3141   86.4415   12.8216 C.3     1  UNL1        0.1152
      8 C          63.1942   87.8070   12.2124 C.3     1  UNL1        0.1153
      9 N          63.6345   89.0145   12.9857 N.am    1  UNL1       -0.2716
     10 C          63.5146   90.3800   12.3765 C.2     1  UNL1        0.2883
     11 O          63.9549   91.5876   13.1498 O.2     1  UNL1       -0.2664
     12 C          63.5539   83.7107   14.0401 C.ar    1  UNL1        0.0536
     13 C          64.2770   83.3186   12.7858 C.ar    1  UNL1        0.0045
     14 C          63.8367   82.1110   12.0125 C.ar    1  UNL1        0.0001
     15 C          62.6733   81.2955   12.4936 C.ar    1  UNL1        0.0000
     16 C          61.9502   81.6876   13.7478 C.ar    1  UNL1        0.0001
     17 C          62.3904   82.8952   14.5211 C.ar    1  UNL1        0.0045
     18 C          62.9545   90.5379   10.9939 C.2     1  UNL1        0.2502
     19 O          63.7043   91.3341    9.9675 O.2     1  UNL1       -0.2817
     20 C          61.6445   89.8996   10.6380 C.2     1  UNL1        0.0639
     21 C          60.2834   90.4428   10.9578 C.2     1  UNL1        0.1019
     22 N          59.2634   89.4849   10.4173 N.2     1  UNL1       -0.2460
     23 C          59.9942   88.3498    9.7634 C.2     1  UNL1        0.0837
     24 C          59.5097   87.1159    9.0614 C.3     1  UNL1        0.1708
     25 N          60.4969   86.1384    8.4959 N.2     1  UNL1       -0.2624
     26 C          61.9685   86.3947    8.6324 C.2     1  UNL1        0.0936
     27 C          62.4530   87.6286    9.3343 C.2     1  UNL1        0.0216
     28 C          61.4658   88.6061    9.8999 C.2     1  UNL1        0.0218
@<TRIPOS>BOND
     1     2     1    1
     2     2     3    1
     3     3     4    1
     4     4     5   am
     5     5     6    2
     6     5    12    1
     7    12    13   ar
     8    13    14   ar
     9    14    15   ar
    10    15    16   ar
    11    16    17   ar
    12     4     7    1
    13     7     8    1
    14     8     9    1
    15     9    10   am
    16    10    11    2
    17    10    18    1
    18    18    19    2
    19    18    20    1
    20    20    21    2
    21    21    22    1
    22    22    23    2
    23    23    24    1
    24    24    25    1
    25    25    26    2
    26    26    27    1
    27    27    28    2
    28     9     2    1
    29    28    20    1
    30    17    12   ar
    31    28    23    1
@<TRIPOS>MOLECULE
*****
 28 31 0 0 0
SMALL
GASTEIGER

@<TRIPOS>ATOM
      1 C          62.4484   90.7268   10.5672 C.3     1  UNL1        0.0233
      2 C          62.7009   89.3608   11.1329 C.3     1  UNL1        0.0956
      3 C          62.5112   88.1462   10.2733 C.3     1  UNL1        0.1135
      4 N          62.7637   86.7801   10.8390 N.am    1  UNL1       -0.2726
      5 C          62.5740   85.5656    9.9793 C.2     1  UNL1        0.2491
      6 O          62.1318   85.7171    8.5540 O.2     1  UNL1       -0.2699
      7 C          63.2059   86.6285   12.2642 C.3     1  UNL1        0.1152
      8 C          63.3956   87.8430   13.1238 C.3     1  UNL1        0.1153
      9 N          63.1431   89.2091   12.5581 N.am    1  UNL1       -0.2716
     10 C          63.3328   90.4237   13.4178 C.2     1  UNL1        0.2883
     11 O          63.0803   91.7898   12.8521 O.2     1  UNL1       -0.2664
     12 C          62.8265   84.1995   10.5450 C.ar    1  UNL1        0.0536
     13 C          63.7284   83.2434    9.8223 C.ar    1  UNL1        0.0045
     14 C          63.9809   81.8773   10.3880 C.ar    1  UNL1        0.0001
     15 C          63.3314   81.4673   11.6765 C.ar    1  UNL1        0.0000
     16 C          62.4294   82.4234   12.3991 C.ar    1  UNL1        0.0001
     17 C          62.1770   83.7895   11.8334 C.ar    1  UNL1        0.0045
     18 C          63.7750   90.2721   14.8431 C.2     1  UNL1        0.2502
     19 O          63.2969   89.1062   15.6567 O.2     1  UNL1       -0.2817
     20 C          64.6953   91.2865   15.4548 C.2     1  UNL1        0.0639
     21 C          64.4334   92.0746   16.7039 C.2     1  UNL1        0.1019
     22 N          65.6152   92.9660   16.9458 N.2     1  UNL1       -0.2460
     23 C          66.6076   92.7288   15.8462 C.2     1  UNL1        0.0837
     24 C          67.9554   93.3239   15.5650 C.3     1  UNL1        0.1708
     25 N          68.7347   92.8809   14.3623 N.2     1  UNL1       -0.2624
     26 C          68.1661   91.8429   13.4409 C.2     1  UNL1        0.0936
     27 C          66.8182   91.2478   13.7220 C.2     1  UNL1        0.0216
     28 C          66.0390   91.6908   14.9247 C.2     1  UNL1        0.0218
@<TRIPOS>BOND
     1     2     1    1
     2     2     3    1
     3     3     4    1
     4     4     5   am
     5     5     6    2
     6     5    12    1
     7    12    13   ar
     8    13    14   ar
     9    14    15   ar
    10    15    16   ar
    11    16    17   ar
    12     4     7    1
    13     7     8    1
    14     8     9    1
    15     9    10   am
    16    10    11    2
    17    10    18    1
    18    18    19    2
    19    18    20    1
    20    20    21    2
    21    21    22    1
    22    22    23    2
    23    23    24    1
    24    24    25    1
    25    25    26    2
    26    26    27    1
    27    27    28    2
    28     9     2    1
    29    28    20    1
    30    17    12   ar
    31    28    23    1
@<TRIPOS>MOLECULE
*****
 28 31 0 0 0
SMALL
GASTEIGER

@<TRIPOS>ATOM
      1 C          61.8210   88.2608   10.8992 C.3     1  UNL1        0.0233
      2 C          62.8329   88.6135   11.9487 C.3     1  UNL1        0.0956
      3 C          63.4403   89.9848   11.9742 C.3     1  UNL1        0.1135
      4 N          64.4522   90.3375   13.0238 N.am    1  UNL1       -0.2726
      5 C          65.0595   91.7089   13.0492 C.2     1  UNL1        0.2491
      6 O          64.6549   92.7275   12.0252 O.2     1  UNL1       -0.2699
      7 C          64.8568   89.3190   14.0479 C.3     1  UNL1        0.1152
      8 C          64.2495   87.9477   14.0224 C.3     1  UNL1        0.1153
      9 N          63.2376   87.5950   12.9728 N.am    1  UNL1       -0.2716
     10 C          62.6302   86.2236   12.9473 C.2     1  UNL1        0.2883
     11 O          61.6183   85.8709   11.8977 O.2     1  UNL1       -0.2664
     12 C          66.0714   92.0616   14.0988 C.ar    1  UNL1        0.0536
     13 C          67.5313   92.0857   13.7552 C.ar    1  UNL1        0.0045
     14 C          68.5432   92.4384   14.8047 C.ar    1  UNL1        0.0001
     15 C          68.0952   92.7670   16.1981 C.ar    1  UNL1        0.0000
     16 C          66.6353   92.7429   16.5417 C.ar    1  UNL1        0.0001
     17 C          65.6234   92.3902   15.4922 C.ar    1  UNL1        0.0045
     18 C          63.0348   85.2050   13.9715 C.2     1  UNL1        0.2502
     19 O          63.7240   85.6403   15.2306 O.2     1  UNL1       -0.2817
     20 C          62.7503   83.7511   13.7363 C.2     1  UNL1        0.0639
     21 C          62.0745   82.8183   14.6972 C.2     1  UNL1        0.1019
     22 N          61.9981   81.4655   14.0537 N.2     1  UNL1       -0.2460
     23 C          62.6266   81.5622   12.6952 C.2     1  UNL1        0.0837
     24 C          62.8356   80.5465   11.6114 C.3     1  UNL1        0.1708
     25 N          63.5095   80.9434   10.3315 N.2     1  UNL1       -0.2624
     26 C          63.9744   82.3560   10.1353 C.2     1  UNL1        0.0936
     27 C          63.7653   83.3717   11.2191 C.2     1  UNL1        0.0216
     28 C          63.0914   82.9748   12.4990 C.2     1  UNL1        0.0218
@<TRIPOS>BOND
     1     2     1    1
     2     2     3    1
     3     3     4    1
     4     4     5   am
     5     5     6    2
     6     5    12    1
     7    12    13   ar
     8    13    14   ar
     9    14    15   ar
    10    15    16   ar
    11    16    17   ar
    12     4     7    1
    13     7     8    1
    14     8     9    1
    15     9    10   am
    16    10    11    2
    17    10    18    1
    18    18    19    2
    19    18    20    1
    20    20    21    2
    21    21    22    1
    22    22    23    2
    23    23    24    1
    24    24    25    1
    25    25    26    2
    26    26    27    1
    27    27    28    2
    28     9     2    1
    29    28    20    1
    30    17    12   ar
    31    28    23    1
@<TRIPOS>MOLECULE
*****
 28 31 0 0 0
SMALL
GASTEIGER

@<TRIPOS>ATOM
      1 C          63.3775   88.0554   17.1448 C.3     1  UNL1        0.0233
      2 C          63.4355   87.3791   15.8072 C.3     1  UNL1        0.0956
      3 C          63.4900   85.8824   15.7253 C.3     1  UNL1        0.1135
      4 N          63.5481   85.2060   14.3877 N.am    1  UNL1       -0.2726
      5 C          63.6026   83.7092   14.3059 C.2     1  UNL1        0.2491
      6 O          63.5991   82.8888   15.5616 O.2     1  UNL1       -0.2699
      7 C          63.5516   86.0264   13.1320 C.3     1  UNL1        0.1152
      8 C          63.4970   87.5232   13.2139 C.3     1  UNL1        0.1153
      9 N          63.4390   88.1995   14.5515 N.am    1  UNL1       -0.2716
     10 C          63.3844   89.6963   14.6334 C.2     1  UNL1        0.2883
     11 O          63.3264   90.3726   15.9710 O.2     1  UNL1       -0.2664
     12 C          63.6607   83.0329   12.9683 C.ar    1  UNL1        0.0536
     13 C          64.5668   83.5646   11.8977 C.ar    1  UNL1        0.0045
     14 C          64.6249   82.8882   10.5601 C.ar    1  UNL1        0.0001
     15 C          63.7767   81.6802   10.2930 C.ar    1  UNL1        0.0000
     16 C          62.8706   81.1486   11.3636 C.ar    1  UNL1        0.0001
     17 C          62.8125   81.8249   12.7012 C.ar    1  UNL1        0.0045
     18 C          63.3879   90.5168   13.3776 C.2     1  UNL1        0.2502
     19 O          62.2023   90.4875   12.4594 O.2     1  UNL1       -0.2817
     20 C          64.5771   91.3665   13.0402 C.2     1  UNL1        0.0639
     21 C          65.0100   91.7698   11.6618 C.2     1  UNL1        0.1019
     22 N          66.2426   92.6147   11.7918 N.2     1  UNL1       -0.2460
     23 C          66.5715   92.7335   13.2504 C.2     1  UNL1        0.0837
     24 C          67.6753   93.4444   13.9757 C.3     1  UNL1        0.1708
     25 N          67.7498   93.3840   15.4726 N.2     1  UNL1       -0.2624
     26 C          66.7205   92.6126   16.2442 C.2     1  UNL1        0.0936
     27 C          65.6167   91.9016   15.5189 C.2     1  UNL1        0.0216
     28 C          65.5422   91.9621   14.0220 C.2     1  UNL1        0.0218
@<TRIPOS>BOND
     1     2     1    1
     2     2     3    1
     3     3     4    1
     4     4     5   am
     5     5     6    2
     6     5    12    1
     7    12    13   ar
     8    13    14   ar
     9    14    15   ar
    10    15    16   ar
    11    16    17   ar
    12     4     7    1
    13     7     8    1
    14     8     9    1
    15     9    10   am
    16    10    11    2
    17    10    18    1
    18    18    19    2
    19    18    20    1
    20    20    21    2
    21    21    22    1
    22    22    23    2
    23    23    24    1
    24    24    25    1
    25    25    26    2
    26    26    27    1
    27    27    28    2
    28     9     2    1
    29    28    20    1
    30    17    12   ar
    31    28    23    1
