@<TRIPOS>MOLECULE
*****
 26 29 0 0 0
SMALL
GASTEIGER

@<TRIPOS>ATOM
      1 N          65.0958   92.9214   11.4899 N.ar    1  UNL1       -0.3256
      2 C          64.2919   91.6868   11.2081 C.ar    1  UNL1        0.0367
      3 C          64.3399   90.8142   12.4273 C.ar    1  UNL1        0.0108
      4 C          65.1735   91.5096   13.4625 C.ar    1  UNL1        0.0145
      5 C          65.5674   91.1251   14.8578 C.ar    1  UNL1        0.0012
      6 C          66.4286   92.0429   15.6737 C.ar    1  UNL1        0.0001
      7 C          66.8958   93.3453   15.0944 C.ar    1  UNL1        0.0015
      8 C          66.5019   93.7297   13.6991 C.ar    1  UNL1        0.0172
      9 C          65.6407   92.8119   12.8831 C.ar    1  UNL1        0.0597
     10 C          63.6183   89.4993   12.4372 C.3     1  UNL1        0.1216
     11 N          62.8487   89.0568   11.2281 N.am    1  UNL1       -0.2715
     12 C          62.1271   87.7418   11.2381 C.2     1  UNL1        0.2493
     13 O          62.1751   86.8692   12.4572 O.2     1  UNL1       -0.2699
     14 C          62.8007   89.9294   10.0089 C.3     1  UNL1        0.1003
     15 C          63.5223   91.2444    9.9989 C.3     1  UNL1        0.0650
     16 C          61.3576   87.2995   10.0289 C.ar    1  UNL1        0.0544
     17 C          59.9592   87.7948    9.8071 C.ar    1  UNL1        0.0046
     18 C          59.1898   87.3525    8.5978 C.ar    1  UNL1        0.0010
     19 C          59.8186   86.4147    7.6104 C.ar    1  UNL1        0.0114
     20 C          61.2171   85.9192    7.8321 C.ar    1  UNL1        0.0578
     21 CL         61.8459   84.9815    6.8447 Cl      1  UNL1       -0.0822
     22 C          61.9865   86.3616    9.0414 C.ar    1  UNL1        0.0159
     23 C          65.3163   94.0649   10.5444 C.3     1  UNL1        0.1474
     24 O          67.0102   95.8114    9.6333 O.co2   1  UNL1       -0.5472
     25 C          66.7070   94.4220   10.1106 C.2     1  UNL1        0.0732
     26 O          67.7946   93.3899   10.1541 O.co2   1  UNL1       -0.5472
@<TRIPOS>UNITY_ATOM_ATTR
24 1
charge -1
@<TRIPOS>BOND
     1    24    25   ar
     2    25    26   ar
     3    25    23    1
     4    23     1    1
     5     1     2   ar
     6     2     3   ar
     7     3     4   ar
     8     4     5   ar
     9     5     6   ar
    10     6     7   ar
    11     7     8   ar
    12     8     9   ar
    13     3    10    1
    14    10    11    1
    15    11    12   am
    16    12    13    2
    17    12    16    1
    18    16    17   ar
    19    17    18   ar
    20    18    19   ar
    21    19    20   ar
    22    20    21    1
    23    20    22   ar
    24    11    14    1
    25    14    15    1
    26     9     1   ar
    27    22    16   ar
    28    15     2    1
    29     9     4   ar
@<TRIPOS>MOLECULE
*****
 26 29 0 0 0
SMALL
GASTEIGER

@<TRIPOS>ATOM
      1 N          62.7284   88.8835   11.3038 N.ar    1  UNL1       -0.3256
      2 C          62.8098   87.5150   11.9126 C.ar    1  UNL1        0.0367
      3 C          63.6026   87.6187   13.1817 C.ar    1  UNL1        0.0108
      4 C          64.0112   89.0512   13.3574 C.ar    1  UNL1        0.0145
      5 C          64.8054   89.7448   14.4241 C.ar    1  UNL1        0.0012
      6 C          65.0593   91.2202   14.3303 C.ar    1  UNL1        0.0001
      7 C          64.5190   92.0019   13.1697 C.ar    1  UNL1        0.0015
      8 C          63.7248   91.3083   12.1029 C.ar    1  UNL1        0.0172
      9 C          63.4709   89.8329   12.1967 C.ar    1  UNL1        0.0597
     10 C          63.8500   86.3952   14.0135 C.3     1  UNL1        0.1216
     11 N          63.3046   85.0680   13.5761 N.am    1  UNL1       -0.2715
     12 C          63.5521   83.8445   14.4080 C.2     1  UNL1        0.2493
     13 O          64.3449   83.9482   15.6771 O.2     1  UNL1       -0.2699
     14 C          62.5118   84.9644   12.3070 C.3     1  UNL1        0.1003
     15 C          62.2644   86.1878   11.4752 C.3     1  UNL1        0.0650
     16 C          63.0067   82.5174   13.9705 C.ar    1  UNL1        0.0544
     17 C          63.8435   81.6046   13.1241 C.ar    1  UNL1        0.0046
     18 C          63.2980   80.2776   12.6867 C.ar    1  UNL1        0.0010
     19 C          61.9157   79.8632   13.0957 C.ar    1  UNL1        0.0114
     20 C          61.0787   80.7760   13.9422 C.ar    1  UNL1        0.0578
     21 CL         59.6963   80.3617   14.3513 Cl      1  UNL1       -0.0822
     22 C          61.6242   82.1031   14.3796 C.ar    1  UNL1        0.0159
     23 C          62.0275   89.2400   10.0265 C.3     1  UNL1        0.1474
     24 O          59.8341   90.5909   10.3640 O.co2   1  UNL1       -0.5472
     25 C          60.5300   89.3162    9.9886 C.2     1  UNL1        0.0732
     26 O          59.7282   88.1177    9.5752 O.co2   1  UNL1       -0.5472
@<TRIPOS>UNITY_ATOM_ATTR
24 1
charge -1
@<TRIPOS>BOND
     1    24    25   ar
     2    25    26   ar
     3    25    23    1
     4    23     1    1
     5     1     2   ar
     6     2     3   ar
     7     3     4   ar
     8     4     5   ar
     9     5     6   ar
    10     6     7   ar
    11     7     8   ar
    12     8     9   ar
    13     3    10    1
    14    10    11    1
    15    11    12   am
    16    12    13    2
    17    12    16    1
    18    16    17   ar
    19    17    18   ar
    20    18    19   ar
    21    19    20   ar
    22    20    21    1
    23    20    22   ar
    24    11    14    1
    25    14    15    1
    26     9     1   ar
    27    22    16   ar
    28    15     2    1
    29     9     4   ar
@<TRIPOS>MOLECULE
*****
 26 29 0 0 0
SMALL
GASTEIGER

@<TRIPOS>ATOM
      1 N          65.2371   93.1999   11.5394 N.ar    1  UNL1       -0.3256
      2 C          64.3157   92.0690   11.1898 C.ar    1  UNL1        0.0367
      3 C          64.1743   91.1952   12.4008 C.ar    1  UNL1        0.0108
      4 C          65.0081   91.7860   13.4988 C.ar    1  UNL1        0.0145
      5 C          65.2542   91.3559   14.9145 C.ar    1  UNL1        0.0012
      6 C          66.1571   92.1647   15.7979 C.ar    1  UNL1        0.0001
      7 C          66.8139   93.4038   15.2656 C.ar    1  UNL1        0.0015
      8 C          66.5679   93.8339   13.8498 C.ar    1  UNL1        0.0172
      9 C          65.6650   93.0250   12.9664 C.ar    1  UNL1        0.0597
     10 C          63.3044   89.9744   12.3471 C.3     1  UNL1        0.1216
     11 N          62.5760   89.6274   11.0826 N.am    1  UNL1       -0.2715
     12 C          61.7061   88.4065   11.0290 C.2     1  UNL1        0.2493
     13 O          61.5646   87.5326   12.2400 O.2     1  UNL1       -0.2699
     14 C          62.7175   90.5012    9.8717 C.3     1  UNL1        0.1003
     15 C          63.5873   91.7220    9.9253 C.3     1  UNL1        0.0650
     16 C          60.9777   88.0596    9.7644 C.ar    1  UNL1        0.0544
     17 C          60.7895   86.6227    9.3773 C.ar    1  UNL1        0.0046
     18 C          60.0611   86.2759    8.1127 C.ar    1  UNL1        0.0010
     19 C          59.5210   87.3659    7.2352 C.ar    1  UNL1        0.0114
     20 C          59.7092   88.8029    7.6224 C.ar    1  UNL1        0.0578
     21 CL         59.1690   89.8930    6.7449 Cl      1  UNL1       -0.0822
     22 C          60.4376   89.1497    8.8870 C.ar    1  UNL1        0.0159
     23 C          65.6568   94.3107   10.6229 C.3     1  UNL1        0.1474
     24 O          67.4341   95.2891    9.0000 O.co2   1  UNL1       -0.5472
     25 C          66.8001   94.1081    9.6734 C.2     1  UNL1        0.0732
     26 O          67.3097   92.7246    9.3973 O.co2   1  UNL1       -0.5472
@<TRIPOS>UNITY_ATOM_ATTR
24 1
charge -1
@<TRIPOS>BOND
     1    24    25   ar
     2    25    26   ar
     3    25    23    1
     4    23     1    1
     5     1     2   ar
     6     2     3   ar
     7     3     4   ar
     8     4     5   ar
     9     5     6   ar
    10     6     7   ar
    11     7     8   ar
    12     8     9   ar
    13     3    10    1
    14    10    11    1
    15    11    12   am
    16    12    13    2
    17    12    16    1
    18    16    17   ar
    19    17    18   ar
    20    18    19   ar
    21    19    20   ar
    22    20    21    1
    23    20    22   ar
    24    11    14    1
    25    14    15    1
    26     9     1   ar
    27    22    16   ar
    28    15     2    1
    29     9     4   ar
@<TRIPOS>MOLECULE
*****
 26 29 0 0 0
SMALL
GASTEIGER

@<TRIPOS>ATOM
      1 N          61.7226   86.9707   11.2045 N.ar    1  UNL1       -0.3256
      2 C          62.5733   88.1089   11.6848 C.ar    1  UNL1        0.0367
      3 C          62.3380   89.2790   10.7762 C.ar    1  UNL1        0.0108
      4 C          61.3418   88.8639    9.7344 C.ar    1  UNL1        0.0145
      5 C          60.7319   89.6007    8.5789 C.ar    1  UNL1        0.0012
      6 C          59.7417   88.9108    7.6882 C.ar    1  UNL1        0.0001
      7 C          59.3614   87.4842    7.9528 C.ar    1  UNL1        0.0015
      8 C          59.9713   86.7474    9.1083 C.ar    1  UNL1        0.0172
      9 C          60.9615   87.4373    9.9991 C.ar    1  UNL1        0.0597
     10 C          63.0612   90.5712   11.0150 C.3     1  UNL1        0.1216
     11 N          64.0197   90.6934   12.1623 N.am    1  UNL1       -0.2715
     12 C          64.7429   91.9858   12.4010 C.2     1  UNL1        0.2493
     13 O          64.5076   93.1559   11.4924 O.2     1  UNL1       -0.2699
     14 C          64.2550   89.5233   13.0709 C.3     1  UNL1        0.1003
     15 C          63.5319   88.2311   12.8321 C.3     1  UNL1        0.0650
     16 C          65.7014   92.1079   13.5483 C.ar    1  UNL1        0.0544
     17 C          65.1820   92.2195   14.9511 C.ar    1  UNL1        0.0046
     18 C          66.1406   92.3416   16.0984 C.ar    1  UNL1        0.0010
     19 C          67.6186   92.3521   15.8429 C.ar    1  UNL1        0.0114
     20 C          68.1381   92.2404   14.4401 C.ar    1  UNL1        0.0578
     21 CL         69.6162   92.2509   14.1846 Cl      1  UNL1       -0.0822
     22 C          67.1795   92.1183   13.2928 C.ar    1  UNL1        0.0159
     23 C          61.6464   85.6055   11.8213 C.3     1  UNL1        0.1474
     24 O          63.2499   83.8818   10.7224 O.co2   1  UNL1       -0.5472
     25 C          62.8723   84.7441   11.8903 C.2     1  UNL1        0.0732
     26 O          63.7209   84.7449   13.1272 O.co2   1  UNL1       -0.5472
@<TRIPOS>UNITY_ATOM_ATTR
24 1
charge -1
@<TRIPOS>BOND
     1    24    25   ar
     2    25    26   ar
     3    25    23    1
     4    23     1    1
     5     1     2   ar
     6     2     3   ar
     7     3     4   ar
     8     4     5   ar
     9     5     6   ar
    10     6     7   ar
    11     7     8   ar
    12     8     9   ar
    13     3    10    1
    14    10    11    1
    15    11    12   am
    16    12    13    2
    17    12    16    1
    18    16    17   ar
    19    17    18   ar
    20    18    19   ar
    21    19    20   ar
    22    20    21    1
    23    20    22   ar
    24    11    14    1
    25    14    15    1
    26     9     1   ar
    27    22    16   ar
    28    15     2    1
    29     9     4   ar
@<TRIPOS>MOLECULE
*****
 26 29 0 0 0
SMALL
GASTEIGER

@<TRIPOS>ATOM
      1 N          61.5534   88.3413   10.1816 N.ar    1  UNL1       -0.3256
      2 C          61.9247   87.0452   10.8390 C.ar    1  UNL1        0.0367
      3 C          62.8810   87.3484   11.9541 C.ar    1  UNL1        0.0108
      4 C          63.1008   88.8319   11.9858 C.ar    1  UNL1        0.0145
      5 C          63.9421   89.7032   12.8707 C.ar    1  UNL1        0.0012
      6 C          63.9629   91.1881   12.6600 C.ar    1  UNL1        0.0001
      7 C          63.1424   91.8018   11.5645 C.ar    1  UNL1        0.0015
      8 C          62.3011   90.9305   10.6797 C.ar    1  UNL1        0.0172
      9 C          62.2803   89.4455   10.8903 C.ar    1  UNL1        0.0597
     10 C          63.4281   86.2345   12.7966 C.3     1  UNL1        0.1216
     11 N          63.0189   84.8173   12.5240 N.am    1  UNL1       -0.2715
     12 C          63.5661   83.7034   13.3665 C.2     1  UNL1        0.2493
     13 O          64.5224   84.0066   14.4816 O.2     1  UNL1       -0.2699
     14 C          62.0626   84.5141   11.4089 C.3     1  UNL1        0.1003
     15 C          61.5154   85.6281   10.5664 C.3     1  UNL1        0.0650
     16 C          63.1568   82.2863   13.0938 C.ar    1  UNL1        0.0544
     17 C          62.6297   81.4303   14.2071 C.ar    1  UNL1        0.0046
     18 C          62.2204   80.0132   13.9343 C.ar    1  UNL1        0.0010
     19 C          62.3383   79.4521   12.5482 C.ar    1  UNL1        0.0114
     20 C          62.8654   80.3081   11.4348 C.ar    1  UNL1        0.0578
     21 CL         62.9832   79.7470   10.0488 Cl      1  UNL1       -0.0822
     22 C          63.2747   81.7252   11.7076 C.ar    1  UNL1        0.0159
     23 C          60.6193   88.5046    9.0194 C.3     1  UNL1        0.1474
     24 O          58.6392   87.0114    8.2449 O.co2   1  UNL1       -0.5472
     25 C          60.1113   87.2964    8.2899 C.2     1  UNL1        0.0732
     26 O          61.0751   86.3732    7.6054 O.co2   1  UNL1       -0.5472
@<TRIPOS>UNITY_ATOM_ATTR
24 1
charge -1
@<TRIPOS>BOND
     1    24    25   ar
     2    25    26   ar
     3    25    23    1
     4    23     1    1
     5     1     2   ar
     6     2     3   ar
     7     3     4   ar
     8     4     5   ar
     9     5     6   ar
    10     6     7   ar
    11     7     8   ar
    12     8     9   ar
    13     3    10    1
    14    10    11    1
    15    11    12   am
    16    12    13    2
    17    12    16    1
    18    16    17   ar
    19    17    18   ar
    20    18    19   ar
    21    19    20   ar
    22    20    21    1
    23    20    22   ar
    24    11    14    1
    25    14    15    1
    26     9     1   ar
    27    22    16   ar
    28    15     2    1
    29     9     4   ar
@<TRIPOS>MOLECULE
*****
 26 29 0 0 0
SMALL
GASTEIGER

@<TRIPOS>ATOM
      1 N          57.2582   93.9873   -3.9432 N.ar    1  UNL1       -0.3256
      2 C          58.2196   94.0137   -2.7921 C.ar    1  UNL1        0.0367
      3 C          57.6349   94.8844   -1.7198 C.ar    1  UNL1        0.0108
      4 C          56.3121   95.3962   -2.2081 C.ar    1  UNL1        0.0145
      5 C          55.2896   96.2954   -1.5790 C.ar    1  UNL1        0.0012
      6 C          54.0342   96.6401   -2.3241 C.ar    1  UNL1        0.0001
      7 C          53.8014   96.0856   -3.6983 C.ar    1  UNL1        0.0015
      8 C          54.8239   95.1864   -4.3274 C.ar    1  UNL1        0.0172
      9 C          56.0793   94.8417   -3.5823 C.ar    1  UNL1        0.0597
     10 C          58.3825   95.0988   -0.4372 C.3     1  UNL1        0.1216
     11 N          59.7148   94.4425   -0.2269 N.am    1  UNL1       -0.2715
     12 C          60.4624   94.6569    1.0558 C.2     1  UNL1        0.2493
     13 O          59.8777   95.5277    2.1281 O.2     1  UNL1       -0.2699
     14 C          60.2995   93.5718   -1.2993 C.3     1  UNL1        0.1003
     15 C          59.5519   93.3573   -2.5819 C.3     1  UNL1        0.0650
     16 C          61.7947   94.0006    1.2659 C.ar    1  UNL1        0.0544
     17 C          63.0228   94.5730    0.6224 C.ar    1  UNL1        0.0046
     18 C          64.3551   93.9166    0.8326 C.ar    1  UNL1        0.0010
     19 C          64.4593   92.6877    1.6864 C.ar    1  UNL1        0.0114
     20 C          63.2312   92.1152    2.3300 C.ar    1  UNL1        0.0578
     21 CL         63.3354   90.8863    3.1837 Cl      1  UNL1       -0.0822
     22 C          61.8989   92.7716    2.1197 C.ar    1  UNL1        0.0159
     23 C          57.4431   93.2380   -5.2294 C.3     1  UNL1        0.1474
     24 O          56.7576   91.0294   -4.0452 O.co2   1  UNL1       -0.5472
     25 C          57.1467   91.7690   -5.2910 C.2     1  UNL1        0.0732
     26 O          57.2392   91.0392   -6.5983 O.co2   1  UNL1       -0.5472
@<TRIPOS>UNITY_ATOM_ATTR
24 1
charge -1
@<TRIPOS>BOND
     1    24    25   ar
     2    25    26   ar
     3    25    23    1
     4    23     1    1
     5     1     2   ar
     6     2     3   ar
     7     3     4   ar
     8     4     5   ar
     9     5     6   ar
    10     6     7   ar
    11     7     8   ar
    12     8     9   ar
    13     3    10    1
    14    10    11    1
    15    11    12   am
    16    12    13    2
    17    12    16    1
    18    16    17   ar
    19    17    18   ar
    20    18    19   ar
    21    19    20   ar
    22    20    21    1
    23    20    22   ar
    24    11    14    1
    25    14    15    1
    26     9     1   ar
    27    22    16   ar
    28    15     2    1
    29     9     4   ar
