@<TRIPOS>MOLECULE
*****
 33 37 0 0 0
SMALL
GASTEIGER

@<TRIPOS>ATOM
      1 C          63.1263   89.7565   11.7359 C.3     1  UNL1        0.0749
      2 C          63.8776   91.0520   11.6519 C.3     1  UNL1        0.0444
      3 C          64.7334   91.4985   12.8001 C.ar    1  UNL1       -0.0103
      4 C          64.8378   90.6494   14.0322 C.ar    1  UNL1       -0.0091
      5 C          65.6936   91.0960   15.1804 C.ar    1  UNL1       -0.0032
      6 C          66.4449   92.3915   15.0964 C.ar    1  UNL1        0.0010
      7 C          66.3405   93.2405   13.8642 C.ar    1  UNL1        0.0140
      8 C          65.4848   92.7940   12.7161 C.ar    1  UNL1        0.0403
      9 C          64.0864   89.3539   14.1163 C.3     1  UNL1        0.0954
     10 N          63.2307   88.9075   12.9681 N.3     1  UNL1       -0.2934
     11 H          62.2839   88.7983   13.3315 H       1  UNL1        0.1236
     12 N          65.3804   93.6431   11.4839 N.pl3   1  UNL1       -0.3342
     13 H          64.6337   94.2770   11.3848 H       1  UNL1        0.1468
     14 C          66.4136   93.5262   10.4028 C.3     1  UNL1        0.0718
     15 C          67.2949   92.3143   10.3355 C.3     1  UNL1        0.0366
     16 C          68.3282   92.1974    9.2544 C.3     1  UNL1        0.0703
     17 N          68.4800   93.2924    8.2406 N.3     1  UNL1       -0.2974
     18 C          67.5987   94.5043    8.3078 C.3     1  UNL1        0.0703
     19 C          66.5655   94.6212    9.3889 C.3     1  UNL1        0.0366
     20 H          68.3290   92.8690    7.3250 H       1  UNL1        0.1232
     21 C          62.2705   89.3099   10.5877 C.3     1  UNL1        0.0886
     22 C          60.1447   87.9891   11.2853 C.3     1  UNL1        0.0899
     23 N          61.5144   88.0174   10.6742 N.3     1  UNL1       -0.2667
     24 C          62.1278   86.7531   10.1495 C.3     1  UNL1        0.0978
     25 C          62.2080   86.5159    8.6706 C.3     1  UNL1        0.0224
     26 C          62.8214   85.2516    8.1460 C.3     1  UNL1        0.0065
     27 C          63.3546   84.2244    9.1002 C.3     1  UNL1        0.0277
     28 C          63.2744   84.4616   10.5792 C.ar    1  UNL1       -0.0073
     29 C          63.8076   83.4345   11.5335 C.ar    1  UNL1       -0.0015
     30 C          63.7273   83.6717   13.0124 C.ar    1  UNL1        0.0203
     31 C          63.1139   84.9360   13.5371 C.ar    1  UNL1        0.0985
     32 N          62.5808   85.9631   12.5828 N.ar    1  UNL1       -0.2471
     33 C          62.6610   85.7259   11.1039 C.ar    1  UNL1        0.0695
@<TRIPOS>BOND
     1    22    23    1
     2    23    21    1
     3     1    21    1
     4     1     2    1
     5     2     3    1
     6     3     4   ar
     7     4     5   ar
     8     5     6   ar
     9     6     7   ar
    10     7     8   ar
    11     8    12    1
    12    12    14    1
    13    14    15    1
    14    15    16    1
    15    16    17    1
    16    17    18    1
    17    18    19    1
    18     4     9    1
    19     9    10    1
    20    24    23    1
    21    24    25    1
    22    25    26    1
    23    26    27    1
    24    27    28    1
    25    28    29   ar
    26    29    30   ar
    27    30    31   ar
    28    31    32   ar
    29    32    33   ar
    30    10     1    1
    31    33    24    1
    32     8     3   ar
    33    19    14    1
    34    33    28   ar
    35    12    13    1
    36    17    20    1
    37    10    11    1
@<TRIPOS>MOLECULE
*****
 33 37 0 0 0
SMALL
GASTEIGER

@<TRIPOS>ATOM
      1 C          63.8666   91.5314   11.0295 C.3     1  UNL1        0.0749
      2 C          63.7774   91.2829   12.5061 C.3     1  UNL1        0.0444
      3 C          64.8720   91.7593   13.4143 C.ar    1  UNL1       -0.0103
      4 C          66.0558   92.4843   12.8459 C.ar    1  UNL1       -0.0091
      5 C          67.1504   92.9607   13.7541 C.ar    1  UNL1       -0.0032
      6 C          67.0612   92.7122   15.2307 C.ar    1  UNL1        0.0010
      7 C          65.8774   91.9873   15.7991 C.ar    1  UNL1        0.0140
      8 C          64.7828   91.5109   14.8909 C.ar    1  UNL1        0.0403
      9 C          66.1450   92.7328   11.3693 C.3     1  UNL1        0.0954
     10 N          65.0504   92.2563   10.4612 N.3     1  UNL1       -0.2934
     11 H          65.4826   91.6284    9.7834 H       1  UNL1        0.1236
     12 N          63.5990   90.7859   15.4593 N.pl3   1  UNL1       -0.3342
     13 H          62.7926   91.2876   15.7187 H       1  UNL1        0.1468
     14 C          63.6438   89.2966   15.6324 C.3     1  UNL1        0.0718
     15 C          63.0047   88.6614   16.8316 C.3     1  UNL1        0.0366
     16 C          63.0495   87.1721   17.0047 C.3     1  UNL1        0.0703
     17 N          63.7334   86.3180   15.9786 N.3     1  UNL1       -0.2974
     18 C          64.3726   86.9532   14.7795 C.3     1  UNL1        0.0703
     19 C          64.3278   88.4425   14.6063 C.3     1  UNL1        0.0366
     20 H          63.0347   85.6631   15.6276 H       1  UNL1        0.1232
     21 C          62.7720   91.0549   10.1213 C.3     1  UNL1        0.0886
     22 C          60.5012   90.9192   11.3763 C.3     1  UNL1        0.0899
     23 N          61.6399   90.2408   10.6740 N.3     1  UNL1       -0.2667
     24 C          61.6465   88.7483   10.5246 C.3     1  UNL1        0.0978
     25 C          62.4584   87.9043   11.4618 C.3     1  UNL1        0.0224
     26 C          62.4650   86.4117   11.3123 C.3     1  UNL1        0.0065
     27 C          61.6596   85.7633   10.2256 C.3     1  UNL1        0.0277
     28 C          60.8477   86.6073    9.2883 C.ar    1  UNL1       -0.0073
     29 C          60.0424   85.9588    8.2017 C.ar    1  UNL1       -0.0015
     30 C          59.2305   86.8029    7.2645 C.ar    1  UNL1        0.0203
     31 C          59.2239   88.2954    7.4140 C.ar    1  UNL1        0.0985
     32 N          60.0292   88.9439    8.5006 N.ar    1  UNL1       -0.2471
     33 C          60.8411   88.0998    9.4378 C.ar    1  UNL1        0.0695
@<TRIPOS>BOND
     1    22    23    1
     2    23    21    1
     3     1    21    1
     4     1     2    1
     5     2     3    1
     6     3     4   ar
     7     4     5   ar
     8     5     6   ar
     9     6     7   ar
    10     7     8   ar
    11     8    12    1
    12    12    14    1
    13    14    15    1
    14    15    16    1
    15    16    17    1
    16    17    18    1
    17    18    19    1
    18     4     9    1
    19     9    10    1
    20    24    23    1
    21    24    25    1
    22    25    26    1
    23    26    27    1
    24    27    28    1
    25    28    29   ar
    26    29    30   ar
    27    30    31   ar
    28    31    32   ar
    29    32    33   ar
    30    10     1    1
    31    33    24    1
    32     8     3   ar
    33    19    14    1
    34    33    28   ar
    35    12    13    1
    36    17    20    1
    37    10    11    1
@<TRIPOS>MOLECULE
*****
 33 37 0 0 0
SMALL
GASTEIGER

@<TRIPOS>ATOM
      1 C          63.9734   86.2749   14.7795 C.3     1  UNL1        0.0749
      2 C          63.8843   85.5512   13.4687 C.3     1  UNL1        0.0444
      3 C          63.2367   84.1999   13.4006 C.ar    1  UNL1       -0.0103
      4 C          62.6782   83.5724   14.6433 C.ar    1  UNL1       -0.0091
      5 C          62.0306   82.2211   14.5752 C.ar    1  UNL1       -0.0032
      6 C          61.9415   81.4973   13.2644 C.ar    1  UNL1        0.0010
      7 C          62.5000   82.1248   12.0217 C.ar    1  UNL1        0.0140
      8 C          63.1476   83.4761   12.0898 C.ar    1  UNL1        0.0403
      9 C          62.7673   84.2962   15.9541 C.3     1  UNL1        0.0954
     10 N          63.4149   85.6474   16.0222 N.3     1  UNL1       -0.2934
     11 H          64.1858   85.5713   16.6857 H       1  UNL1        0.1236
     12 N          63.7061   84.1036   10.8471 N.pl3   1  UNL1       -0.3342
     13 H          64.6684   84.0346   10.6506 H       1  UNL1        0.1468
     14 C          62.7987   84.8361    9.9038 C.3     1  UNL1        0.0718
     15 C          62.9762   84.6839    8.4221 C.3     1  UNL1        0.0366
     16 C          62.0687   85.4165    7.4788 C.3     1  UNL1        0.0703
     17 N          60.9836   86.3011    8.0172 N.3     1  UNL1       -0.2974
     18 C          60.8060   86.4533    9.4988 C.3     1  UNL1        0.0703
     19 C          61.7135   85.7208   10.4421 C.3     1  UNL1        0.0366
     20 H          60.1021   85.9424    7.6503 H       1  UNL1        0.1232
     21 C          64.6211   87.6262   14.8476 C.3     1  UNL1        0.0886
     22 C          62.9724   89.3155   15.9331 C.3     1  UNL1        0.0899
     23 N          63.7818   88.8658   14.7529 N.3     1  UNL1       -0.2667
     24 C          63.7518   89.6557   13.4781 C.3     1  UNL1        0.0978
     25 C          62.8784   89.2130   12.3419 C.3     1  UNL1        0.0224
     26 C          62.8484   90.0029   11.0671 C.3     1  UNL1        0.0065
     27 C          63.6918   91.2355   10.9285 C.3     1  UNL1        0.0277
     28 C          64.5653   91.6783   12.0648 C.ar    1  UNL1       -0.0073
     29 C          65.4087   92.9109   11.9263 C.ar    1  UNL1       -0.0015
     30 C          66.2821   93.3536   13.0625 C.ar    1  UNL1        0.0203
     31 C          66.3121   92.5637   14.3373 C.ar    1  UNL1        0.0985
     32 N          65.4686   91.3311   14.4759 N.ar    1  UNL1       -0.2471
     33 C          64.5953   90.8884   13.3396 C.ar    1  UNL1        0.0695
@<TRIPOS>BOND
     1    22    23    1
     2    23    21    1
     3     1    21    1
     4     1     2    1
     5     2     3    1
     6     3     4   ar
     7     4     5   ar
     8     5     6   ar
     9     6     7   ar
    10     7     8   ar
    11     8    12    1
    12    12    14    1
    13    14    15    1
    14    15    16    1
    15    16    17    1
    16    17    18    1
    17    18    19    1
    18     4     9    1
    19     9    10    1
    20    24    23    1
    21    24    25    1
    22    25    26    1
    23    26    27    1
    24    27    28    1
    25    28    29   ar
    26    29    30   ar
    27    30    31   ar
    28    31    32   ar
    29    32    33   ar
    30    10     1    1
    31    33    24    1
    32     8     3   ar
    33    19    14    1
    34    33    28   ar
    35    12    13    1
    36    17    20    1
    37    10    11    1
@<TRIPOS>MOLECULE
*****
 33 37 0 0 0
SMALL
GASTEIGER

@<TRIPOS>ATOM
      1 C          63.0596   90.9884   11.5524 C.3     1  UNL1        0.0749
      2 C          64.4378   91.5558   11.3839 C.3     1  UNL1        0.0444
      3 C          65.3479   91.6800   12.5698 C.ar    1  UNL1       -0.0103
      4 C          64.8797   91.2368   13.9241 C.ar    1  UNL1       -0.0091
      5 C          65.7898   91.3610   15.1101 C.ar    1  UNL1       -0.0032
      6 C          67.1681   91.9284   14.9416 C.ar    1  UNL1        0.0010
      7 C          67.6362   92.3717   13.5872 C.ar    1  UNL1        0.0140
      8 C          66.7262   92.2475   12.4013 C.ar    1  UNL1        0.0403
      9 C          63.5015   90.6693   14.0926 C.3     1  UNL1        0.0954
     10 N          62.5914   90.5451   12.9068 N.3     1  UNL1       -0.2934
     11 H          61.7538   91.0865   13.1205 H       1  UNL1        0.1236
     12 N          67.1944   92.6907   11.0469 N.pl3   1  UNL1       -0.3342
     13 H          67.7005   92.0706   10.4738 H       1  UNL1        0.1468
     14 C          66.8915   94.0788   10.5659 C.3     1  UNL1        0.0718
     15 C          66.1828   95.0467   11.4664 C.3     1  UNL1        0.0366
     16 C          65.8800   96.4348   10.9852 C.3     1  UNL1        0.0703
     17 N          66.2857   96.8550    9.6036 N.3     1  UNL1       -0.2974
     18 C          66.9944   95.8870    8.7031 C.3     1  UNL1        0.0703
     19 C          67.2973   94.4990    9.1842 C.3     1  UNL1        0.0366
     20 H          66.9001   97.6622    9.7099 H       1  UNL1        0.1232
     21 C          62.1495   90.8642   10.3665 C.3     1  UNL1        0.0886
     22 C          59.7332   90.6088   11.2866 C.3     1  UNL1        0.0899
     23 N          60.8778   90.0763   10.4763 N.3     1  UNL1       -0.2667
     24 C          60.7506   88.7561    9.7758 C.3     1  UNL1        0.0978
     25 C          59.9663   88.6558    8.5012 C.3     1  UNL1        0.0224
     26 C          59.8390   87.3356    7.8007 C.3     1  UNL1        0.0065
     27 C          60.4962   86.1155    8.3748 C.3     1  UNL1        0.0277
     28 C          61.2805   86.2157    9.6495 C.ar    1  UNL1       -0.0073
     29 C          61.9376   84.9957   10.2237 C.ar    1  UNL1       -0.0015
     30 C          62.7220   85.0959   11.4983 C.ar    1  UNL1        0.0203
     31 C          62.8492   86.4162   12.1988 C.ar    1  UNL1        0.0985
     32 N          62.1921   87.6362   11.6246 N.ar    1  UNL1       -0.2471
     33 C          61.4077   87.5360   10.3500 C.ar    1  UNL1        0.0695
@<TRIPOS>BOND
     1    22    23    1
     2    23    21    1
     3     1    21    1
     4     1     2    1
     5     2     3    1
     6     3     4   ar
     7     4     5   ar
     8     5     6   ar
     9     6     7   ar
    10     7     8   ar
    11     8    12    1
    12    12    14    1
    13    14    15    1
    14    15    16    1
    15    16    17    1
    16    17    18    1
    17    18    19    1
    18     4     9    1
    19     9    10    1
    20    24    23    1
    21    24    25    1
    22    25    26    1
    23    26    27    1
    24    27    28    1
    25    28    29   ar
    26    29    30   ar
    27    30    31   ar
    28    31    32   ar
    29    32    33   ar
    30    10     1    1
    31    33    24    1
    32     8     3   ar
    33    19    14    1
    34    33    28   ar
    35    12    13    1
    36    17    20    1
    37    10    11    1
@<TRIPOS>MOLECULE
*****
 33 37 0 0 0
SMALL
GASTEIGER

@<TRIPOS>ATOM
      1 C          63.3260   90.8906   13.4807 C.3     1  UNL1        0.0749
      2 C          64.6126   91.3649   12.8728 C.3     1  UNL1        0.0444
      3 C          65.7352   91.8231   13.7558 C.ar    1  UNL1       -0.0103
      4 C          65.5712   91.8069   15.2467 C.ar    1  UNL1       -0.0091
      5 C          66.6939   92.2651   16.1298 C.ar    1  UNL1       -0.0032
      6 C          67.9805   92.7394   15.5219 C.ar    1  UNL1        0.0010
      7 C          68.1445   92.7556   14.0309 C.ar    1  UNL1        0.0140
      8 C          67.0219   92.2974   13.1479 C.ar    1  UNL1        0.0403
      9 C          64.2845   91.3326   15.8546 C.3     1  UNL1        0.0954
     10 N          63.1619   90.8745   14.9716 N.3     1  UNL1       -0.2934
     11 H          62.3587   91.4655   15.1858 H       1  UNL1        0.1236
     12 N          67.1859   92.3136   11.6570 N.pl3   1  UNL1       -0.3342
     13 H          67.4320   91.4883   11.1799 H       1  UNL1        0.1468
     14 C          66.9750   93.5871   10.8930 C.3     1  UNL1        0.0718
     15 C          66.1974   94.7117   11.5099 C.3     1  UNL1        0.0366
     16 C          65.9864   95.9852   10.7458 C.3     1  UNL1        0.0703
     17 N          66.5530   96.1340    9.3650 N.3     1  UNL1       -0.2974
     18 C          67.3307   95.0094    8.7481 C.3     1  UNL1        0.0703
     19 C          67.5416   93.7359    9.5121 C.3     1  UNL1        0.0366
     20 H          67.1732   96.9436    9.3869 H       1  UNL1        0.1232
     21 C          62.2033   90.4324   12.5976 C.3     1  UNL1        0.0886
     22 C          63.1043   90.7525   10.1819 C.3     1  UNL1        0.0899
     23 N          62.4990   89.8747   11.2370 N.3     1  UNL1       -0.2667
     24 C          62.1894   88.4392   10.9313 C.3     1  UNL1        0.0978
     25 C          62.8238   87.3466   11.7398 C.3     1  UNL1        0.0224
     26 C          62.5142   85.9110   11.4341 C.3     1  UNL1        0.0065
     27 C          61.5703   85.5681   10.3199 C.3     1  UNL1        0.0277
     28 C          60.9359   86.6608    9.5114 C.ar    1  UNL1       -0.0073
     29 C          59.9920   86.3179    8.3972 C.ar    1  UNL1       -0.0015
     30 C          59.3576   87.4105    7.5887 C.ar    1  UNL1        0.0203
     31 C          59.6672   88.8461    7.8944 C.ar    1  UNL1        0.0985
     32 N          60.6111   89.1890    9.0086 N.ar    1  UNL1       -0.2471
     33 C          61.2455   88.0963    9.8170 C.ar    1  UNL1        0.0695
@<TRIPOS>BOND
     1    22    23    1
     2    23    21    1
     3     1    21    1
     4     1     2    1
     5     2     3    1
     6     3     4   ar
     7     4     5   ar
     8     5     6   ar
     9     6     7   ar
    10     7     8   ar
    11     8    12    1
    12    12    14    1
    13    14    15    1
    14    15    16    1
    15    16    17    1
    16    17    18    1
    17    18    19    1
    18     4     9    1
    19     9    10    1
    20    24    23    1
    21    24    25    1
    22    25    26    1
    23    26    27    1
    24    27    28    1
    25    28    29   ar
    26    29    30   ar
    27    30    31   ar
    28    31    32   ar
    29    32    33   ar
    30    10     1    1
    31    33    24    1
    32     8     3   ar
    33    19    14    1
    34    33    28   ar
    35    12    13    1
    36    17    20    1
    37    10    11    1
@<TRIPOS>MOLECULE
*****
 33 37 0 0 0
SMALL
GASTEIGER

@<TRIPOS>ATOM
      1 C          63.4773   90.8371   13.7753 C.3     1  UNL1        0.0749
      2 C          64.7838   91.2332   13.1541 C.3     1  UNL1        0.0444
      3 C          65.8786   91.8011   14.0079 C.ar    1  UNL1       -0.0103
      4 C          65.6667   91.9729   15.4829 C.ar    1  UNL1       -0.0091
      5 C          66.7616   92.5408   16.3367 C.ar    1  UNL1       -0.0032
      6 C          68.0681   92.9368   15.7155 C.ar    1  UNL1        0.0010
      7 C          68.2800   92.7650   14.2405 C.ar    1  UNL1        0.0140
      8 C          67.1853   92.1972   13.3867 C.ar    1  UNL1        0.0403
      9 C          64.3602   91.5768   16.1041 C.3     1  UNL1        0.0954
     10 N          63.2654   91.0089   15.2503 N.3     1  UNL1       -0.2934
     11 H          62.4571   91.6209   15.3623 H       1  UNL1        0.1236
     12 N          67.3971   92.0254   11.9117 N.pl3   1  UNL1       -0.3342
     13 H          67.7518   91.1766   11.5609 H       1  UNL1        0.1468
     14 C          67.0685   93.1467   10.9712 C.3     1  UNL1        0.0718
     15 C          67.7147   93.2049    9.6188 C.3     1  UNL1        0.0366
     16 C          67.3861   94.3263    8.6782 C.3     1  UNL1        0.0703
     17 N          66.4113   95.3894    9.0901 N.3     1  UNL1       -0.2974
     18 C          65.7652   95.3312   10.4426 C.3     1  UNL1        0.0703
     19 C          66.0938   94.2098   11.3831 C.3     1  UNL1        0.0366
     20 H          65.6576   95.3800    8.4030 H       1  UNL1        0.1232
     21 C          62.3824   90.2692   12.9215 C.3     1  UNL1        0.0886
     22 C          63.3315   90.9412   10.5981 C.3     1  UNL1        0.0899
     23 N          62.6477   89.9406   11.4822 N.3     1  UNL1       -0.2667
     24 C          62.2293   88.6116   10.9268 C.3     1  UNL1        0.0978
     25 C          61.4377   88.5460    9.6544 C.3     1  UNL1        0.0224
     26 C          61.0192   87.2169    9.0991 C.3     1  UNL1        0.0065
     27 C          61.3923   85.9534    9.8161 C.3     1  UNL1        0.0277
     28 C          62.1840   86.0189   11.0885 C.ar    1  UNL1       -0.0073
     29 C          62.5572   84.7553   11.8056 C.ar    1  UNL1       -0.0015
     30 C          63.3488   84.8209   13.0779 C.ar    1  UNL1        0.0203
     31 C          63.7672   86.1500   13.6333 C.ar    1  UNL1        0.0985
     32 N          63.3941   87.4135   12.9163 N.ar    1  UNL1       -0.2471
     33 C          62.6025   87.3480   11.6439 C.ar    1  UNL1        0.0695
@<TRIPOS>BOND
     1    22    23    1
     2    23    21    1
     3     1    21    1
     4     1     2    1
     5     2     3    1
     6     3     4   ar
     7     4     5   ar
     8     5     6   ar
     9     6     7   ar
    10     7     8   ar
    11     8    12    1
    12    12    14    1
    13    14    15    1
    14    15    16    1
    15    16    17    1
    16    17    18    1
    17    18    19    1
    18     4     9    1
    19     9    10    1
    20    24    23    1
    21    24    25    1
    22    25    26    1
    23    26    27    1
    24    27    28    1
    25    28    29   ar
    26    29    30   ar
    27    30    31   ar
    28    31    32   ar
    29    32    33   ar
    30    10     1    1
    31    33    24    1
    32     8     3   ar
    33    19    14    1
    34    33    28   ar
    35    12    13    1
    36    17    20    1
    37    10    11    1
@<TRIPOS>MOLECULE
*****
 33 37 0 0 0
SMALL
GASTEIGER

@<TRIPOS>ATOM
      1 C          63.4504   88.9442   13.2563 C.3     1  UNL1        0.0749
      2 C          63.3879   87.5845   12.6261 C.3     1  UNL1        0.0444
      3 C          62.3619   87.2931   11.5715 C.ar    1  UNL1       -0.0103
      4 C          61.3983   88.3614   11.1470 C.ar    1  UNL1       -0.0091
      5 C          60.3722   88.0699   10.0924 C.ar    1  UNL1       -0.0032
      6 C          60.3098   86.7101    9.4622 C.ar    1  UNL1        0.0010
      7 C          61.2734   85.6418    9.8866 C.ar    1  UNL1        0.0140
      8 C          62.2994   85.9333   10.9413 C.ar    1  UNL1        0.0403
      9 C          61.4607   89.7211   11.7772 C.3     1  UNL1        0.0954
     10 N          62.4867   90.0126   12.8318 N.3     1  UNL1       -0.2934
     11 H          61.9768   90.2982   13.6678 H       1  UNL1        0.1236
     12 N          63.2630   84.8650   11.3657 N.pl3   1  UNL1       -0.3342
     13 H          64.1486   84.8035   10.9400 H       1  UNL1        0.1468
     14 C          62.8774   83.8903   12.4387 C.3     1  UNL1        0.0718
     15 C          62.5749   82.4647   12.0835 C.3     1  UNL1        0.0366
     16 C          62.1893   81.4901   13.1566 C.3     1  UNL1        0.0703
     17 N          62.1061   81.9411   14.5847 N.3     1  UNL1       -0.2974
     18 C          62.4085   83.3667   14.9399 C.3     1  UNL1        0.0703
     19 C          62.7942   84.3413   13.8669 C.3     1  UNL1        0.0366
     20 H          62.7564   81.3612   15.1150 H       1  UNL1        0.1232
     21 C          64.4764   89.2357   14.3109 C.3     1  UNL1        0.0886
     22 C          63.3217   90.6315   16.1733 C.3     1  UNL1        0.0899
     23 N          64.3823   90.4944   15.1214 N.3     1  UNL1       -0.2667
     24 C          65.3486   91.6160   14.8799 C.3     1  UNL1        0.0978
     25 C          66.2064   92.1215   16.0018 C.3     1  UNL1        0.0224
     26 C          67.1727   93.2430   15.7603 C.3     1  UNL1        0.0065
     27 C          67.2812   93.8591   14.3970 C.3     1  UNL1        0.0277
     28 C          66.4234   93.3536   13.2751 C.ar    1  UNL1       -0.0073
     29 C          66.5319   93.9697   11.9118 C.ar    1  UNL1       -0.0015
     30 C          65.6741   93.4642   10.7900 C.ar    1  UNL1        0.0203
     31 C          64.7078   92.3426   11.0314 C.ar    1  UNL1        0.0985
     32 N          64.5993   91.7265   12.3947 N.ar    1  UNL1       -0.2471
     33 C          65.4571   92.2320   13.5165 C.ar    1  UNL1        0.0695
@<TRIPOS>BOND
     1    22    23    1
     2    23    21    1
     3     1    21    1
     4     1     2    1
     5     2     3    1
     6     3     4   ar
     7     4     5   ar
     8     5     6   ar
     9     6     7   ar
    10     7     8   ar
    11     8    12    1
    12    12    14    1
    13    14    15    1
    14    15    16    1
    15    16    17    1
    16    17    18    1
    17    18    19    1
    18     4     9    1
    19     9    10    1
    20    24    23    1
    21    24    25    1
    22    25    26    1
    23    26    27    1
    24    27    28    1
    25    28    29   ar
    26    29    30   ar
    27    30    31   ar
    28    31    32   ar
    29    32    33   ar
    30    10     1    1
    31    33    24    1
    32     8     3   ar
    33    19    14    1
    34    33    28   ar
    35    12    13    1
    36    17    20    1
    37    10    11    1
@<TRIPOS>MOLECULE
*****
 33 37 0 0 0
SMALL
GASTEIGER

@<TRIPOS>ATOM
      1 C          61.0694   87.3100   11.0948 C.3     1  UNL1        0.0749
      2 C          61.5316   86.0601   11.7833 C.3     1  UNL1        0.0444
      3 C          62.3908   85.0736   11.0495 C.ar    1  UNL1       -0.0103
      4 C          62.7877   85.3369    9.6271 C.ar    1  UNL1       -0.0091
      5 C          63.6468   84.3503    8.8933 C.ar    1  UNL1       -0.0032
      6 C          64.1091   83.1004    9.5818 C.ar    1  UNL1        0.0010
      7 C          63.7122   82.8371   11.0042 C.ar    1  UNL1        0.0140
      8 C          62.8530   83.8236   11.7380 C.ar    1  UNL1        0.0403
      9 C          62.3254   86.5868    8.9386 C.3     1  UNL1        0.0954
     10 N          61.4663   87.5733    9.6724 N.3     1  UNL1       -0.2934
     11 H          60.6025   87.6662    9.1380 H       1  UNL1        0.1236
     12 N          62.4561   83.5603   13.1604 N.pl3   1  UNL1       -0.3342
     13 H          61.8909   82.7842   13.3781 H       1  UNL1        0.1468
     14 C          62.9204   84.4795   14.2510 C.3     1  UNL1        0.0718
     15 C          64.1463   85.3206   14.0518 C.3     1  UNL1        0.0366
     16 C          64.6105   86.2398   15.1426 C.3     1  UNL1        0.0703
     17 N          63.8488   86.3179   16.4324 N.3     1  UNL1       -0.2974
     18 C          62.6229   85.4768   16.6316 C.3     1  UNL1        0.0703
     19 C          62.1587   84.5576   15.5409 C.3     1  UNL1        0.0366
     20 H          63.5608   87.2898   16.5458 H       1  UNL1        0.1232
     21 C          60.2102   88.2966   11.8286 C.3     1  UNL1        0.0886
     22 C          59.1888   90.6607   11.4847 C.3     1  UNL1        0.0899
     23 N          60.3889   89.7673   11.5936 N.3     1  UNL1       -0.2667
     24 C          61.7676   90.3446   11.4675 C.3     1  UNL1        0.0978
     25 C          62.2328   90.8950   10.1520 C.3     1  UNL1        0.0224
     26 C          63.6115   91.4723   10.0258 C.3     1  UNL1        0.0065
     27 C          64.5250   91.4993   11.2152 C.3     1  UNL1        0.0277
     28 C          64.0598   90.9489   12.5309 C.ar    1  UNL1       -0.0073
     29 C          64.9733   90.9759   13.7202 C.ar    1  UNL1       -0.0015
     30 C          64.5081   90.4255   15.0358 C.ar    1  UNL1        0.0203
     31 C          63.1295   89.8482   15.1619 C.ar    1  UNL1        0.0985
     32 N          62.2159   89.8212   13.9725 N.ar    1  UNL1       -0.2471
     33 C          62.6811   90.3716   12.6570 C.ar    1  UNL1        0.0695
@<TRIPOS>BOND
     1    22    23    1
     2    23    21    1
     3     1    21    1
     4     1     2    1
     5     2     3    1
     6     3     4   ar
     7     4     5   ar
     8     5     6   ar
     9     6     7   ar
    10     7     8   ar
    11     8    12    1
    12    12    14    1
    13    14    15    1
    14    15    16    1
    15    16    17    1
    16    17    18    1
    17    18    19    1
    18     4     9    1
    19     9    10    1
    20    24    23    1
    21    24    25    1
    22    25    26    1
    23    26    27    1
    24    27    28    1
    25    28    29   ar
    26    29    30   ar
    27    30    31   ar
    28    31    32   ar
    29    32    33   ar
    30    10     1    1
    31    33    24    1
    32     8     3   ar
    33    19    14    1
    34    33    28   ar
    35    12    13    1
    36    17    20    1
    37    10    11    1
@<TRIPOS>MOLECULE
*****
 33 37 0 0 0
SMALL
GASTEIGER

@<TRIPOS>ATOM
      1 C          63.7330   90.8145   14.1612 C.3     1  UNL1        0.0749
      2 C          65.0315   91.1450   13.4869 C.3     1  UNL1        0.0444
      3 C          66.1234   91.8279   14.2559 C.ar    1  UNL1       -0.0103
      4 C          65.9168   92.1803   15.6992 C.ar    1  UNL1       -0.0091
      5 C          67.0088   92.8633   16.4681 C.ar    1  UNL1       -0.0032
      6 C          68.3073   93.1938   15.7938 C.ar    1  UNL1        0.0010
      7 C          68.5138   92.8414   14.3505 C.ar    1  UNL1        0.0140
      8 C          67.4219   92.1585   13.5815 C.ar    1  UNL1        0.0403
      9 C          64.6184   91.8498   16.3735 C.3     1  UNL1        0.0954
     10 N          63.5265   91.1669   15.6046 N.3     1  UNL1       -0.2934
     11 H          62.7113   91.7786   15.6446 H       1  UNL1        0.1236
     12 N          67.6284   91.8061   12.1382 N.pl3   1  UNL1       -0.3342
     13 H          67.9705   90.9161   11.8929 H       1  UNL1        0.1468
     14 C          67.3138   92.8097   11.0687 C.3     1  UNL1        0.0718
     15 C          66.2937   93.8800   11.3212 C.3     1  UNL1        0.0366
     16 C          65.9792   94.8836   10.2516 C.3     1  UNL1        0.0703
     17 N          66.6847   94.8168    8.9296 N.3     1  UNL1       -0.2974
     18 C          67.7048   93.7465    8.6771 C.3     1  UNL1        0.0703
     19 C          68.0194   92.7429    9.7466 C.3     1  UNL1        0.0366
     20 H          67.1588   95.7111    8.8034 H       1  UNL1        0.1232
     21 C          62.6411   90.1316   13.3923 C.3     1  UNL1        0.0886
     22 C          62.7353   88.9578   11.0763 C.3     1  UNL1        0.0899
     23 N          62.9526   88.9231   12.5602 N.3     1  UNL1       -0.2667
     24 C          63.4814   87.6798   13.2118 C.3     1  UNL1        0.0978
     25 C          64.2883   87.7788   14.4724 C.3     1  UNL1        0.0224
     26 C          64.8171   86.5356   15.1240 C.3     1  UNL1        0.0065
     27 C          64.5390   85.1933   14.5151 C.3     1  UNL1        0.0277
     28 C          63.7321   85.0942   13.2545 C.ar    1  UNL1       -0.0073
     29 C          63.4540   83.7519   12.6456 C.ar    1  UNL1       -0.0015
     30 C          62.6470   83.6528   11.3850 C.ar    1  UNL1        0.0203
     31 C          62.1182   84.8961   10.7334 C.ar    1  UNL1        0.0985
     32 N          62.3963   86.2384   11.3423 N.ar    1  UNL1       -0.2471
     33 C          63.2033   86.3374   12.6028 C.ar    1  UNL1        0.0695
@<TRIPOS>BOND
     1    22    23    1
     2    23    21    1
     3     1    21    1
     4     1     2    1
     5     2     3    1
     6     3     4   ar
     7     4     5   ar
     8     5     6   ar
     9     6     7   ar
    10     7     8   ar
    11     8    12    1
    12    12    14    1
    13    14    15    1
    14    15    16    1
    15    16    17    1
    16    17    18    1
    17    18    19    1
    18     4     9    1
    19     9    10    1
    20    24    23    1
    21    24    25    1
    22    25    26    1
    23    26    27    1
    24    27    28    1
    25    28    29   ar
    26    29    30   ar
    27    30    31   ar
    28    31    32   ar
    29    32    33   ar
    30    10     1    1
    31    33    24    1
    32     8     3   ar
    33    19    14    1
    34    33    28   ar
    35    12    13    1
    36    17    20    1
    37    10    11    1
