@<TRIPOS>MOLECULE
*****
 28 30 0 0 0
SMALL
GASTEIGER

@<TRIPOS>ATOM
      1 N          61.4702   86.7547    9.5048 N.am    1  UNL1       -0.2607
      2 C          61.7858   85.6029   10.4124 C.3     1  UNL1        0.1227
      3 C          62.5095   86.1417   11.6107 C.ar    1  UNL1        0.0196
      4 C          62.6413   87.6266   11.4436 C.ar    1  UNL1        0.1319
      5 N          63.3291   88.4418   12.4982 N.ar    1  UNL1       -0.2456
      6 C          63.8852   87.7723   13.7199 C.ar    1  UNL1        0.0568
      7 C          64.5730   88.5875   14.7745 C.3     1  UNL1        0.0518
      8 C          63.7535   86.2874   13.8870 C.ar    1  UNL1        0.0068
      9 C          63.0656   85.4722   12.8323 C.ar    1  UNL1       -0.0015
     10 C          61.9989   88.0054   10.1421 C.2     1  UNL1        0.2671
     11 O          61.9023   89.3916    9.5772 O.2     1  UNL1       -0.2682
     12 C          62.9339   83.9873   12.9993 C.ar    1  UNL1        0.0102
     13 C          62.0306   83.4290   14.0587 C.ar    1  UNL1        0.0017
     14 C          61.8988   81.9441   14.2257 C.ar    1  UNL1        0.0114
     15 C          62.6704   81.0177   13.3334 C.ar    1  UNL1        0.0585
     16 CL         62.5386   79.5328   13.5004 Cl      1  UNL1       -0.0822
     17 C          63.5737   81.5760   12.2740 C.ar    1  UNL1        0.0228
     18 C          63.7055   83.0608   12.1069 C.ar    1  UNL1        0.0585
     19 CL         64.6087   83.6192   11.0476 Cl      1  UNL1       -0.0822
     20 C          64.3095   85.6179   15.1086 C.3     1  UNL1        0.0934
     21 N          63.5712   85.7018   16.4115 N.3     1  UNL1       -0.3174
     22 H          63.5626   86.6688   16.7358 H       1  UNL1        0.1192
     23 H          64.0361   85.1149   17.1042 H       1  UNL1        0.1192
     24 C          60.7520   86.6706    8.1906 C.3     1  UNL1        0.2045
     25 C          59.4642   87.4133    7.9908 C.2     1  UNL1        0.3377
     26 O          58.1638   86.6659    7.9635 O.2     1  UNL1       -0.2482
     27 C          59.3208   89.5013    6.4514 C.3     1  UNL1        0.2557
     28 O          59.4766   88.9032    7.8182 O.3     1  UNL1       -0.4432
@<TRIPOS>BOND
     1    27    28    1
     2    28    25    1
     3    25    26    2
     4    25    24    1
     5    24     1    1
     6     1     2    1
     7     2     3    1
     8     3     4   ar
     9     4     5   ar
    10     5     6   ar
    11     6     7    1
    12     6     8   ar
    13     8    20    1
    14    20    21    1
    15     8     9   ar
    16     9    12    1
    17    12    13   ar
    18    13    14   ar
    19    14    15   ar
    20    15    16    1
    21    15    17   ar
    22    17    18   ar
    23    18    19    1
    24     4    10    1
    25    10    11    2
    26    10     1   am
    27     9     3   ar
    28    18    12   ar
    29    21    22    1
    30    21    23    1
@<TRIPOS>MOLECULE
*****
 28 30 0 0 0
SMALL
GASTEIGER

@<TRIPOS>ATOM
      1 N          62.8484   90.4478   10.5992 N.am    1  UNL1       -0.2607
      2 C          63.8330   91.5620   10.4016 C.3     1  UNL1        0.1227
      3 C          64.4616   91.8661   11.7291 C.ar    1  UNL1        0.0196
      4 C          63.8654   90.9399   12.7473 C.ar    1  UNL1        0.1319
      5 N          64.3074   91.0143   14.1787 N.ar    1  UNL1       -0.2456
      6 C          65.3456   92.0150   14.5921 C.ar    1  UNL1        0.0568
      7 C          65.7876   92.0894   16.0235 C.3     1  UNL1        0.0518
      8 C          65.9418   92.9412   13.5739 C.ar    1  UNL1        0.0068
      9 C          65.4998   92.8668   12.1424 C.ar    1  UNL1       -0.0015
     10 C          62.8684   90.0633   12.0490 C.2     1  UNL1        0.2671
     11 O          62.0373   88.9906   12.6882 O.2     1  UNL1       -0.2682
     12 C          66.0959   93.7930   11.1242 C.ar    1  UNL1        0.0102
     13 C          65.5316   95.1708   10.9423 C.ar    1  UNL1        0.0017
     14 C          66.1278   96.0971    9.9241 C.ar    1  UNL1        0.0114
     15 C          67.2883   95.6455    9.0879 C.ar    1  UNL1        0.0585
     16 CL         67.8844   96.5717    8.0697 Cl      1  UNL1       -0.0822
     17 C          67.8526   94.2676    9.2698 C.ar    1  UNL1        0.0228
     18 C          67.2564   93.3413   10.2879 C.ar    1  UNL1        0.0585
     19 CL         67.8207   91.9635   10.4698 Cl      1  UNL1       -0.0822
     20 C          66.9800   93.9419   13.9871 C.3     1  UNL1        0.0934
     21 N          68.2817   93.4755   14.5684 N.3     1  UNL1       -0.3174
     22 H          68.1107   93.0256   15.4677 H       1  UNL1        0.1192
     23 H          68.9010   94.2751   14.7005 H       1  UNL1        0.1192
     24 C          61.9938   89.8271    9.5342 C.3     1  UNL1        0.2045
     25 C          60.5181   89.6707    9.7531 C.2     1  UNL1        0.3377
     26 O          59.7631   90.7014   10.5392 O.2     1  UNL1       -0.2482
     27 C          59.4587   88.4397    7.7252 C.3     1  UNL1        0.2557
     28 O          59.7973   88.4838    9.1859 O.3     1  UNL1       -0.4432
@<TRIPOS>BOND
     1    27    28    1
     2    28    25    1
     3    25    26    2
     4    25    24    1
     5    24     1    1
     6     1     2    1
     7     2     3    1
     8     3     4   ar
     9     4     5   ar
    10     5     6   ar
    11     6     7    1
    12     6     8   ar
    13     8    20    1
    14    20    21    1
    15     8     9   ar
    16     9    12    1
    17    12    13   ar
    18    13    14   ar
    19    14    15   ar
    20    15    16    1
    21    15    17   ar
    22    17    18   ar
    23    18    19    1
    24     4    10    1
    25    10    11    2
    26    10     1   am
    27     9     3   ar
    28    18    12   ar
    29    21    22    1
    30    21    23    1
@<TRIPOS>MOLECULE
*****
 28 30 0 0 0
SMALL
GASTEIGER

@<TRIPOS>ATOM
      1 N          63.4123   84.2758   13.6761 N.am    1  UNL1       -0.2607
      2 C          62.9814   84.5703   12.2699 C.3     1  UNL1        0.1227
      3 C          62.9861   86.0589   12.0857 C.ar    1  UNL1        0.0196
      4 C          63.4199   86.6845   13.3782 C.ar    1  UNL1        0.1319
      5 N          63.5191   88.1767   13.4930 N.ar    1  UNL1       -0.2456
      6 C          63.1844   89.0435   12.3154 C.ar    1  UNL1        0.0568
      7 C          63.2835   90.5358   12.4303 C.3     1  UNL1        0.0518
      8 C          62.7505   88.4180   11.0229 C.ar    1  UNL1        0.0068
      9 C          62.6514   86.9256   10.9081 C.ar    1  UNL1       -0.0015
     10 C          63.6833   85.5824   14.3611 C.2     1  UNL1        0.2671
     11 O          64.1379   85.7565   15.7799 O.2     1  UNL1       -0.2682
     12 C          62.2176   86.3000    9.6156 C.ar    1  UNL1        0.0102
     13 C          63.2109   85.5594    8.7702 C.ar    1  UNL1        0.0017
     14 C          62.7770   84.9339    7.4778 C.ar    1  UNL1        0.0114
     15 C          61.3499   85.0489    7.0307 C.ar    1  UNL1        0.0585
     16 CL         60.9160   84.4233    5.7383 Cl      1  UNL1       -0.0822
     17 C          60.3565   85.7895    7.8761 C.ar    1  UNL1        0.0228
     18 C          60.7903   86.4151    9.1686 C.ar    1  UNL1        0.0585
     19 CL         59.7970   87.1557   10.0140 Cl      1  UNL1       -0.0822
     20 C          62.4158   89.2847    9.8453 C.3     1  UNL1        0.0934
     21 N          61.1774   90.1308    9.8648 N.3     1  UNL1       -0.3174
     22 H          60.3543   89.5285    9.8729 H       1  UNL1        0.1192
     23 H          61.1572   90.7230    9.0346 H       1  UNL1        0.1192
     24 C          63.5483   82.9138   14.2897 C.3     1  UNL1        0.2045
     25 C          62.7190   81.7739   13.7769 C.2     1  UNL1        0.3377
     26 O          61.3464   81.5354   14.3330 O.2     1  UNL1       -0.2482
     27 C          63.0589   81.2167   11.2621 C.3     1  UNL1        0.2557
     28 O          63.2622   80.8726   12.7080 O.3     1  UNL1       -0.4432
@<TRIPOS>BOND
     1    27    28    1
     2    28    25    1
     3    25    26    2
     4    25    24    1
     5    24     1    1
     6     1     2    1
     7     2     3    1
     8     3     4   ar
     9     4     5   ar
    10     5     6   ar
    11     6     7    1
    12     6     8   ar
    13     8    20    1
    14    20    21    1
    15     8     9   ar
    16     9    12    1
    17    12    13   ar
    18    13    14   ar
    19    14    15   ar
    20    15    16    1
    21    15    17   ar
    22    17    18   ar
    23    18    19    1
    24     4    10    1
    25    10    11    2
    26    10     1   am
    27     9     3   ar
    28    18    12   ar
    29    21    22    1
    30    21    23    1
@<TRIPOS>MOLECULE
*****
 28 30 0 0 0
SMALL
GASTEIGER

@<TRIPOS>ATOM
      1 N          63.3280   84.3348   14.1069 N.am    1  UNL1       -0.2607
      2 C          62.7254   84.9040   12.8568 C.3     1  UNL1        0.1227
      3 C          63.0160   86.3754   12.8304 C.ar    1  UNL1        0.0196
      4 C          63.7983   86.7155   14.0642 C.ar    1  UNL1        0.1319
      5 N          64.2339   88.1296   14.3100 N.ar    1  UNL1       -0.2456
      6 C          63.8873   89.2037   13.3218 C.ar    1  UNL1        0.0568
      7 C          64.3230   90.6178   13.5675 C.3     1  UNL1        0.0518
      8 C          63.1051   88.8635   12.0879 C.ar    1  UNL1        0.0068
      9 C          62.6695   87.4493   11.8422 C.ar    1  UNL1       -0.0015
     10 C          63.9910   85.4544   14.8532 C.2     1  UNL1        0.2671
     11 O          64.7191   85.3340   16.1591 O.2     1  UNL1       -0.2682
     12 C          61.8872   87.1092   10.6084 C.ar    1  UNL1        0.0102
     13 C          62.5490   86.3768    9.4790 C.ar    1  UNL1        0.0017
     14 C          61.7668   86.0366    8.2451 C.ar    1  UNL1        0.0114
     15 C          60.3228   86.4289    8.1407 C.ar    1  UNL1        0.0585
     16 CL         59.5405   86.0887    6.9068 Cl      1  UNL1       -0.0822
     17 C          59.6609   87.1613    9.2701 C.ar    1  UNL1        0.0228
     18 C          60.4431   87.5015   10.5040 C.ar    1  UNL1        0.0585
     19 CL         59.7814   88.2339   11.6334 Cl      1  UNL1       -0.0822
     20 C          62.7585   89.9375   11.0998 C.3     1  UNL1        0.0934
     21 N          61.6371   90.8903   11.3903 N.3     1  UNL1       -0.3174
     22 H          60.7535   90.3809   11.4057 H       1  UNL1        0.1192
     23 H          61.6037   91.6072   10.6655 H       1  UNL1        0.1192
     24 C          63.2765   82.8983   14.5355 C.3     1  UNL1        0.2045
     25 C          63.3625   81.8063   13.5108 C.2     1  UNL1        0.3377
     26 O          64.4430   81.8371   12.4707 O.2     1  UNL1       -0.2482
     27 C          60.9904   80.9091   14.0752 C.3     1  UNL1        0.2557
     28 O          62.3680   80.6835   13.5261 O.3     1  UNL1       -0.4432
@<TRIPOS>BOND
     1    27    28    1
     2    28    25    1
     3    25    26    2
     4    25    24    1
     5    24     1    1
     6     1     2    1
     7     2     3    1
     8     3     4   ar
     9     4     5   ar
    10     5     6   ar
    11     6     7    1
    12     6     8   ar
    13     8    20    1
    14    20    21    1
    15     8     9   ar
    16     9    12    1
    17    12    13   ar
    18    13    14   ar
    19    14    15   ar
    20    15    16    1
    21    15    17   ar
    22    17    18   ar
    23    18    19    1
    24     4    10    1
    25    10    11    2
    26    10     1   am
    27     9     3   ar
    28    18    12   ar
    29    21    22    1
    30    21    23    1
@<TRIPOS>MOLECULE
*****
 28 30 0 0 0
SMALL
GASTEIGER

@<TRIPOS>ATOM
      1 N          62.9806   82.8563   12.8220 N.am    1  UNL1       -0.2607
      2 C          62.3882   83.8611   11.8790 C.3     1  UNL1        0.1227
      3 C          62.7997   85.2280   12.3396 C.ar    1  UNL1        0.0196
      4 C          63.6465   85.0680   13.5674 C.ar    1  UNL1        0.1319
      5 N          64.2063   86.2777   14.2553 N.ar    1  UNL1       -0.2456
      6 C          63.9194   87.6475   13.7154 C.ar    1  UNL1        0.0568
      7 C          64.4792   88.8572   14.4032 C.3     1  UNL1        0.0518
      8 C          63.0726   87.8075   12.4876 C.ar    1  UNL1        0.0068
      9 C          62.5128   86.5977   11.7997 C.ar    1  UNL1       -0.0015
     10 C          63.7583   83.6022   13.8655 C.2     1  UNL1        0.2671
     11 O          64.5149   82.9898   15.0068 O.2     1  UNL1       -0.2682
     12 C          61.6661   86.7577   10.5719 C.ar    1  UNL1        0.0102
     13 C          60.3878   87.5396   10.6391 C.ar    1  UNL1        0.0017
     14 C          59.5410   87.6996    9.4114 C.ar    1  UNL1        0.0114
     15 C          59.9726   87.0778    8.1164 C.ar    1  UNL1        0.0585
     16 CL         59.1258   87.2378    6.8886 Cl      1  UNL1       -0.0822
     17 C          61.2510   86.2959    8.0491 C.ar    1  UNL1        0.0228
     18 C          62.0977   86.1359    9.2769 C.ar    1  UNL1        0.0585
     19 CL         63.3760   85.3540    9.2097 Cl      1  UNL1       -0.0822
     20 C          62.7857   89.1772   11.9477 C.3     1  UNL1        0.0934
     21 N          61.7486   90.0398   12.6036 N.3     1  UNL1       -0.3174
     22 H          60.8290   89.6142   12.4868 H       1  UNL1        0.1192
     23 H          61.7527   90.9641   12.1722 H       1  UNL1        0.1192
     24 C          62.8231   81.3670   12.7366 C.3     1  UNL1        0.2045
     25 C          62.0525   80.6325   13.7933 C.2     1  UNL1        0.3377
     26 O          62.6472   79.4222   14.4503 O.2     1  UNL1       -0.2482
     27 C          59.5472   80.1364   14.2704 C.3     1  UNL1        0.2557
     28 O          60.6873   81.1083   14.1931 O.3     1  UNL1       -0.4432
@<TRIPOS>BOND
     1    27    28    1
     2    28    25    1
     3    25    26    2
     4    25    24    1
     5    24     1    1
     6     1     2    1
     7     2     3    1
     8     3     4   ar
     9     4     5   ar
    10     5     6   ar
    11     6     7    1
    12     6     8   ar
    13     8    20    1
    14    20    21    1
    15     8     9   ar
    16     9    12    1
    17    12    13   ar
    18    13    14   ar
    19    14    15   ar
    20    15    16    1
    21    15    17   ar
    22    17    18   ar
    23    18    19    1
    24     4    10    1
    25    10    11    2
    26    10     1   am
    27     9     3   ar
    28    18    12   ar
    29    21    22    1
    30    21    23    1
@<TRIPOS>MOLECULE
*****
 28 30 0 0 0
SMALL
GASTEIGER

@<TRIPOS>ATOM
      1 N          63.8226   85.4974   13.7161 N.am    1  UNL1       -0.2607
      2 C          64.1592   86.9367   13.9710 C.3     1  UNL1        0.1227
      3 C          63.4952   87.7631   12.9098 C.ar    1  UNL1        0.0196
      4 C          62.7482   86.8345   11.9990 C.ar    1  UNL1        0.1319
      5 N          61.9802   87.3840   10.8335 N.ar    1  UNL1       -0.2456
      6 C          61.9593   88.8621   10.5789 C.ar    1  UNL1        0.0568
      7 C          61.1913   89.4116    9.4135 C.3     1  UNL1        0.0518
      8 C          62.7063   89.7907   11.4898 C.ar    1  UNL1        0.0068
      9 C          63.4743   89.2412   12.6553 C.ar    1  UNL1       -0.0015
     10 C          62.9505   85.4343   12.4972 C.2     1  UNL1        0.2671
     11 O          62.3808   84.1894   11.8843 O.2     1  UNL1       -0.2682
     12 C          64.2213   90.1698   13.5661 C.ar    1  UNL1        0.0102
     13 C          65.4413   90.8871   13.0693 C.ar    1  UNL1        0.0017
     14 C          66.1883   91.8157   13.9802 C.ar    1  UNL1        0.0114
     15 C          65.7153   92.0269   15.3879 C.ar    1  UNL1        0.0585
     16 CL         66.4624   92.9555   16.2987 Cl      1  UNL1       -0.0822
     17 C          64.4953   91.3096   15.8847 C.ar    1  UNL1        0.0228
     18 C          63.7482   90.3810   14.9739 C.ar    1  UNL1        0.0585
     19 CL         62.5282   89.6636   15.4707 Cl      1  UNL1       -0.0822
     20 C          62.6854   91.2688   11.2352 C.3     1  UNL1        0.0934
     21 N          63.5328   91.8540   10.1447 N.3     1  UNL1       -0.3174
     22 H          64.5184   91.7351   10.3791 H       1  UNL1        0.1192
     23 H          63.3239   92.8477   10.0479 H       1  UNL1        0.1192
     24 C          64.2780   84.3268   14.5359 C.3     1  UNL1        0.2045
     25 C          63.2687   83.4416   15.2050 C.2     1  UNL1        0.3377
     26 O          62.3637   84.0016   16.2621 O.2     1  UNL1       -0.2482
     27 C          61.8996   81.4744   14.2021 C.3     1  UNL1        0.2557
     28 O          63.1643   81.9964   14.8170 O.3     1  UNL1       -0.4432
@<TRIPOS>BOND
     1    27    28    1
     2    28    25    1
     3    25    26    2
     4    25    24    1
     5    24     1    1
     6     1     2    1
     7     2     3    1
     8     3     4   ar
     9     4     5   ar
    10     5     6   ar
    11     6     7    1
    12     6     8   ar
    13     8    20    1
    14    20    21    1
    15     8     9   ar
    16     9    12    1
    17    12    13   ar
    18    13    14   ar
    19    14    15   ar
    20    15    16    1
    21    15    17   ar
    22    17    18   ar
    23    18    19    1
    24     4    10    1
    25    10    11    2
    26    10     1   am
    27     9     3   ar
    28    18    12   ar
    29    21    22    1
    30    21    23    1
@<TRIPOS>MOLECULE
*****
 28 30 0 0 0
SMALL
GASTEIGER

@<TRIPOS>ATOM
      1 N          64.1102   86.6720   14.4794 N.am    1  UNL1       -0.2607
      2 C          64.7385   88.0272   14.6158 C.3     1  UNL1        0.1227
      3 C          64.2231   88.8913   13.5032 C.ar    1  UNL1        0.0196
      4 C          63.2763   88.0700   12.6792 C.ar    1  UNL1        0.1319
      5 N          62.6000   88.6772   11.4859 N.ar    1  UNL1       -0.2456
      6 C          62.8706   90.1057   11.1167 C.ar    1  UNL1        0.0568
      7 C          62.1943   90.7129    9.9234 C.3     1  UNL1        0.0518
      8 C          63.8174   90.9270   11.9407 C.ar    1  UNL1        0.0068
      9 C          64.4937   90.3197   13.1341 C.ar    1  UNL1       -0.0015
     10 C          63.2065   86.6985   13.2825 C.2     1  UNL1        0.2671
     11 O          62.3785   85.5542   12.7775 O.2     1  UNL1       -0.2682
     12 C          65.4405   91.1409   13.9581 C.ar    1  UNL1        0.0102
     13 C          66.7798   91.5244   13.4023 C.ar    1  UNL1        0.0017
     14 C          67.7266   92.3457   14.2264 C.ar    1  UNL1        0.0114
     15 C          67.3341   92.7834   15.6063 C.ar    1  UNL1        0.0585
     16 CL         68.2809   93.6047   16.4304 Cl      1  UNL1       -0.0822
     17 C          65.9947   92.3999   16.1622 C.ar    1  UNL1        0.0228
     18 C          65.0479   91.5787   15.3381 C.ar    1  UNL1        0.0585
     19 CL         63.7085   91.1952   15.8940 Cl      1  UNL1       -0.0822
     20 C          64.0879   92.3554   11.5716 C.3     1  UNL1        0.0934
     21 N          65.0333   92.6744   10.4515 N.3     1  UNL1       -0.3174
     22 H          65.9762   92.3831   10.7092 H       1  UNL1        0.1192
     23 H          65.0241   93.6789   10.2745 H       1  UNL1        0.1192
     24 C          64.3445   85.4967   15.3815 C.3     1  UNL1        0.2045
     25 C          63.1803   84.7068   15.9019 C.2     1  UNL1        0.3377
     26 O          63.0517   83.2506   15.5657 O.2     1  UNL1       -0.2482
     27 C          62.5546   86.4144   17.7573 C.3     1  UNL1        0.2557
     28 O          62.1447   85.3731   16.7584 O.3     1  UNL1       -0.4432
@<TRIPOS>BOND
     1    27    28    1
     2    28    25    1
     3    25    26    2
     4    25    24    1
     5    24     1    1
     6     1     2    1
     7     2     3    1
     8     3     4   ar
     9     4     5   ar
    10     5     6   ar
    11     6     7    1
    12     6     8   ar
    13     8    20    1
    14    20    21    1
    15     8     9   ar
    16     9    12    1
    17    12    13   ar
    18    13    14   ar
    19    14    15   ar
    20    15    16    1
    21    15    17   ar
    22    17    18   ar
    23    18    19    1
    24     4    10    1
    25    10    11    2
    26    10     1   am
    27     9     3   ar
    28    18    12   ar
    29    21    22    1
    30    21    23    1
@<TRIPOS>MOLECULE
*****
 28 30 0 0 0
SMALL
GASTEIGER

@<TRIPOS>ATOM
      1 N          60.4409   92.7401    2.9972 N.am    1  UNL1       -0.2607
      2 C          59.4885   93.1273    1.9050 C.3     1  UNL1        0.1227
      3 C          60.2697   93.2491    0.6302 C.ar    1  UNL1        0.0196
      4 C          61.7050   92.9372    0.9346 C.ar    1  UNL1        0.1319
      5 N          62.7301   92.9799   -0.1595 N.ar    1  UNL1       -0.2456
      6 C          62.3199   93.3345   -1.5582 C.ar    1  UNL1        0.0568
      7 C          63.3451   93.3772   -2.6524 C.3     1  UNL1        0.0518
      8 C          60.8846   93.6464   -1.8626 C.ar    1  UNL1        0.0068
      9 C          59.8595   93.6037   -0.7683 C.ar    1  UNL1       -0.0015
     10 C          61.8108   92.6226    2.3975 C.2     1  UNL1        0.2671
     11 O          63.0661   92.2551    3.1316 O.2     1  UNL1       -0.2682
     12 C          58.4242   93.9155   -1.0727 C.ar    1  UNL1        0.0102
     13 C          57.4854   92.8150   -1.4695 C.ar    1  UNL1        0.0017
     14 C          56.0501   93.1269   -1.7739 C.ar    1  UNL1        0.0114
     15 C          55.5536   94.5393   -1.6814 C.ar    1  UNL1        0.0585
     16 CL         54.1183   94.8512   -1.9858 Cl      1  UNL1       -0.0822
     17 C          56.4924   95.6399   -1.2846 C.ar    1  UNL1        0.0228
     18 C          57.9277   95.3280   -0.9802 C.ar    1  UNL1        0.0585
     19 CL         58.8665   96.4285   -0.5834 Cl      1  UNL1       -0.0822
     20 C          60.4745   94.0010   -3.2611 C.3     1  UNL1        0.0934
     21 N          60.5263   95.4285   -3.7187 N.3     1  UNL1       -0.3174
     22 H          59.8440   95.9780   -3.1962 H       1  UNL1        0.1192
     23 H          60.3092   95.4745   -4.7143 H       1  UNL1        0.1192
     24 C          60.0859   92.5107    4.4364 C.3     1  UNL1        0.2045
     25 C          58.9735   91.5701    4.7937 C.2     1  UNL1        0.3377
     26 O          59.2789   90.2783    5.4924 O.2     1  UNL1       -0.2482
     27 C          56.4236   91.1590    5.0752 C.3     1  UNL1        0.2557
     28 O          57.5557   91.9211    4.4524 O.3     1  UNL1       -0.4432
@<TRIPOS>BOND
     1    27    28    1
     2    28    25    1
     3    25    26    2
     4    25    24    1
     5    24     1    1
     6     1     2    1
     7     2     3    1
     8     3     4   ar
     9     4     5   ar
    10     5     6   ar
    11     6     7    1
    12     6     8   ar
    13     8    20    1
    14    20    21    1
    15     8     9   ar
    16     9    12    1
    17    12    13   ar
    18    13    14   ar
    19    14    15   ar
    20    15    16    1
    21    15    17   ar
    22    17    18   ar
    23    18    19    1
    24     4    10    1
    25    10    11    2
    26    10     1   am
    27     9     3   ar
    28    18    12   ar
    29    21    22    1
    30    21    23    1
@<TRIPOS>MOLECULE
*****
 28 30 0 0 0
SMALL
GASTEIGER

@<TRIPOS>ATOM
      1 N          58.1532   93.0018   -2.9746 N.am    1  UNL1       -0.2607
      2 C          59.5884   93.3458   -3.2429 C.3     1  UNL1        0.1227
      3 C          60.3314   93.2822   -1.9414 C.ar    1  UNL1        0.0196
      4 C          59.3554   92.8988   -0.8688 C.ar    1  UNL1        0.1319
      5 N          59.8186   92.7570    0.5508 N.ar    1  UNL1       -0.2456
      6 C          61.2578   92.9986    0.8979 C.ar    1  UNL1        0.0568
      7 C          61.7210   92.8568    2.3175 C.3     1  UNL1        0.0518
      8 C          62.2338   93.3820   -0.1747 C.ar    1  UNL1        0.0068
      9 C          61.7705   93.5237   -1.5944 C.ar    1  UNL1       -0.0015
     10 C          58.0093   92.7255   -1.5074 C.2     1  UNL1        0.2671
     11 O          56.7417   92.3431   -0.8024 O.2     1  UNL1       -0.2682
     12 C          62.7465   93.9071   -2.6670 C.ar    1  UNL1        0.0102
     13 C          63.4959   92.8440   -3.4140 C.ar    1  UNL1        0.0017
     14 C          64.4719   93.2273   -4.4866 C.ar    1  UNL1        0.0114
     15 C          64.6984   94.6739   -4.8123 C.ar    1  UNL1        0.0585
     16 CL         65.6744   95.0573   -5.8849 Cl      1  UNL1       -0.0822
     17 C          63.9490   95.7372   -4.0653 C.ar    1  UNL1        0.0228
     18 C          62.9730   95.3538   -2.9927 C.ar    1  UNL1        0.0585
     19 CL         62.2236   96.4169   -2.2457 Cl      1  UNL1       -0.0822
     20 C          63.6729   93.6235    0.1722 C.3     1  UNL1        0.0934
     21 N          64.1333   95.0015    0.5452 N.3     1  UNL1       -0.3174
     22 H          64.0463   95.6191   -0.2618 H       1  UNL1        0.1192
     23 H          65.1085   94.9654    0.8422 H       1  UNL1        0.1192
     24 C          57.0549   92.9442   -3.9946 C.3     1  UNL1        0.2045
     25 C          56.6689   91.6308   -4.6077 C.2     1  UNL1        0.3377
     26 O          55.8753   90.6364   -3.8130 O.2     1  UNL1       -0.2482
     27 C          57.4592   92.4172   -6.9544 C.3     1  UNL1        0.2557
     28 O          57.0764   91.3117   -6.0156 O.3     1  UNL1       -0.4432
@<TRIPOS>BOND
     1    27    28    1
     2    28    25    1
     3    25    26    2
     4    25    24    1
     5    24     1    1
     6     1     2    1
     7     2     3    1
     8     3     4   ar
     9     4     5   ar
    10     5     6   ar
    11     6     7    1
    12     6     8   ar
    13     8    20    1
    14    20    21    1
    15     8     9   ar
    16     9    12    1
    17    12    13   ar
    18    13    14   ar
    19    14    15   ar
    20    15    16    1
    21    15    17   ar
    22    17    18   ar
    23    18    19    1
    24     4    10    1
    25    10    11    2
    26    10     1   am
    27     9     3   ar
    28    18    12   ar
    29    21    22    1
    30    21    23    1
