@<TRIPOS>MOLECULE
*****
 33 36 0 0 0
SMALL
GASTEIGER

@<TRIPOS>ATOM
      1 N          62.1320   86.4477   11.7233 N.pl3   1  UNL1       -0.2860
      2 C          62.5470   82.2151   13.1939 C.ar    1  UNL1        0.0715
      3 C          62.7776   82.5320   11.7460 C.ar    1  UNL1        0.0051
      4 C          62.6392   83.9429   11.2558 C.ar    1  UNL1        0.0148
      5 C          62.2703   85.0368   12.2135 C.ar    1  UNL1        0.0516
      6 C          62.0398   84.7199   13.6614 C.ar    1  UNL1        0.0148
      7 C          62.1782   83.3090   14.1515 C.ar    1  UNL1        0.0051
      8 F          62.8237   79.3933   14.1742 F       1  UNL1       -0.1659
      9 C          62.6854   80.8042   13.6841 C.3     1  UNL1        0.4186
     10 F          61.2102   80.7521   13.9506 F       1  UNL1       -0.1659
     11 F          64.1606   80.8562   13.4175 F       1  UNL1       -0.1659
     12 C          61.1453   86.7723   10.6412 C.ar    1  UNL1        0.0904
     13 C          61.1803   86.0201    9.3439 C.ar    1  UNL1        0.1170
     14 N          60.1935   86.3448    8.2618 N.ar    1  UNL1       -0.2211
     15 C          59.1718   87.4217    8.4769 C.ar    1  UNL1        0.1990
     16 N          59.1368   88.1740    9.7742 N.ar    1  UNL1       -0.2211
     17 C          60.1235   87.8493   10.8563 C.ar    1  UNL1        0.1170
     18 C          62.9803   87.5339   12.3152 C.3     1  UNL1        0.0807
     19 C          63.7885   87.2655   13.5501 C.3     1  UNL1        0.0416
     20 C          64.6368   88.3517   14.1420 C.3     1  UNL1        0.0939
     21 N          64.6770   89.7064   13.4992 N.pl3   1  UNL1       -0.2931
     22 C          63.8688   89.9748   12.2643 C.3     1  UNL1        0.0939
     23 C          63.0205   88.8886   11.6723 C.3     1  UNL1        0.0416
     24 C          65.5254   90.7926   14.0912 C.ar    1  UNL1        0.1317
     25 C          65.1410   91.4148   15.4008 C.ar    1  UNL1        0.0343
     26 C          65.9894   92.5009   15.9927 C.ar    1  UNL1        0.0083
     27 C          67.2221   92.9650   15.2750 C.ar    1  UNL1        0.0906
     28 C          67.6064   92.3429   13.9654 C.ar    1  UNL1        0.1041
     29 N          66.7580   91.2567   13.3734 N.ar    1  UNL1       -0.2292
     30 C          68.0705   94.0513   15.8670 C.3     1  UNL1        0.4200
     31 F          68.9188   95.1375   16.4589 F       1  UNL1       -0.1658
     32 F          68.7033   93.0535   16.7910 F       1  UNL1       -0.1658
     33 F          67.4376   95.0491   14.9429 F       1  UNL1       -0.1658
@<TRIPOS>BOND
     1     8     9    1
     2     9    10    1
     3     9    11    1
     4     9     2    1
     5     2     3   ar
     6     3     4   ar
     7     4     5   ar
     8     5     1    1
     9     1    12    1
    10    12    13   ar
    11    13    14   ar
    12    14    15   ar
    13    15    16   ar
    14    16    17   ar
    15     1    18    1
    16    18    19    1
    17    19    20    1
    18    20    21    1
    19    21    24    1
    20    24    25   ar
    21    25    26   ar
    22    26    27   ar
    23    27    30    1
    24    30    31    1
    25    30    32    1
    26    30    33    1
    27    27    28   ar
    28    28    29   ar
    29    21    22    1
    30    22    23    1
    31     5     6   ar
    32     6     7   ar
    33     7     2   ar
    34    17    12   ar
    35    23    18    1
    36    29    24   ar
@<TRIPOS>MOLECULE
*****
 33 36 0 0 0
SMALL
GASTEIGER

@<TRIPOS>ATOM
      1 N          72.4539   77.6565   14.7006 N.pl3   1  UNL1       -0.2860
      2 C          71.7450   73.2543   15.3072 C.ar    1  UNL1        0.0715
      3 C          70.5973   74.2168   15.3869 C.ar    1  UNL1        0.0051
      4 C          70.8336   75.6842   15.1848 C.ar    1  UNL1        0.0148
      5 C          72.2176   76.1891   14.9028 C.ar    1  UNL1        0.0516
      6 C          73.3653   75.2267   14.8231 C.ar    1  UNL1        0.0148
      7 C          73.1290   73.7593   15.0253 C.ar    1  UNL1        0.0051
      8 F          71.2724   70.3195   15.7116 F       1  UNL1       -0.1659
      9 C          71.5087   71.7869   15.5094 C.3     1  UNL1        0.4186
     10 F          70.2853   71.8648   14.6450 F       1  UNL1       -0.1659
     11 F          72.7321   71.7090   16.3738 F       1  UNL1       -0.1659
     12 C          72.6428   78.5561   15.8860 C.ar    1  UNL1        0.0904
     13 C          73.4441   78.0865   17.0638 C.ar    1  UNL1        0.1170
     14 N          73.6329   78.9861   18.2492 N.ar    1  UNL1       -0.2211
     15 C          73.0204   80.3553   18.2567 C.ar    1  UNL1        0.1990
     16 N          72.2191   80.8250   17.0788 N.ar    1  UNL1       -0.2211
     17 C          72.0303   79.9254   15.8935 C.ar    1  UNL1        0.1170
     18 C          72.5014   78.2244   13.3131 C.3     1  UNL1        0.0807
     19 C          71.8183   77.5082   12.1858 C.3     1  UNL1        0.0416
     20 C          71.8658   78.0760   10.7983 C.3     1  UNL1        0.0939
     21 N          72.5962   79.3600   10.5380 N.pl3   1  UNL1       -0.2931
     22 C          73.2792   80.0762   11.6651 C.3     1  UNL1        0.0939
     23 C          73.2318   79.5084   13.0528 C.3     1  UNL1        0.0416
     24 C          72.6437   79.9278    9.1504 C.ar    1  UNL1        0.1317
     25 C          73.3652   79.1896    8.0621 C.ar    1  UNL1        0.0343
     26 C          73.4126   79.7574    6.6746 C.ar    1  UNL1        0.0083
     27 C          72.7385   81.0635    6.3753 C.ar    1  UNL1        0.0906
     28 C          72.0169   81.8018    7.4635 C.ar    1  UNL1        0.1041
     29 N          71.9695   81.2340    8.8510 N.ar    1  UNL1       -0.2292
     30 C          72.7859   81.6313    4.9877 C.3     1  UNL1        0.4200
     31 F          72.8334   82.1991    3.6001 F       1  UNL1       -0.1658
     32 F          71.9743   82.8083    5.4415 F       1  UNL1       -0.1658
     33 F          73.5975   80.4544    4.5339 F       1  UNL1       -0.1658
@<TRIPOS>BOND
     1     8     9    1
     2     9    10    1
     3     9    11    1
     4     9     2    1
     5     2     3   ar
     6     3     4   ar
     7     4     5   ar
     8     5     1    1
     9     1    12    1
    10    12    13   ar
    11    13    14   ar
    12    14    15   ar
    13    15    16   ar
    14    16    17   ar
    15     1    18    1
    16    18    19    1
    17    19    20    1
    18    20    21    1
    19    21    24    1
    20    24    25   ar
    21    25    26   ar
    22    26    27   ar
    23    27    30    1
    24    30    31    1
    25    30    32    1
    26    30    33    1
    27    27    28   ar
    28    28    29   ar
    29    21    22    1
    30    22    23    1
    31     5     6   ar
    32     6     7   ar
    33     7     2   ar
    34    17    12   ar
    35    23    18    1
    36    29    24   ar
@<TRIPOS>MOLECULE
*****
 33 36 0 0 0
SMALL
GASTEIGER

@<TRIPOS>ATOM
      1 N          71.5413   73.5452   13.6211 N.pl3   1  UNL1       -0.2860
      2 C          71.9400   73.1307   18.0842 C.ar    1  UNL1        0.0715
      3 C          73.1155   72.8473   17.1967 C.ar    1  UNL1        0.0051
      4 C          72.9826   72.9855   15.7090 C.ar    1  UNL1        0.0148
      5 C          71.6742   73.4070   15.1088 C.ar    1  UNL1        0.0516
      6 C          70.4986   73.6904   15.9964 C.ar    1  UNL1        0.0148
      7 C          70.6315   73.5522   17.4841 C.ar    1  UNL1        0.0051
      8 F          72.2058   72.8543   21.0596 F       1  UNL1       -0.1659
      9 C          72.0729   72.9925   19.5719 C.3     1  UNL1        0.4186
     10 F          70.7610   72.2669   19.6217 F       1  UNL1       -0.1659
     11 F          73.3848   73.7181   19.5221 F       1  UNL1       -0.1659
     12 C          71.2167   72.3447   12.7824 C.ar    1  UNL1        0.0904
     13 C          69.8800   71.6770   12.9142 C.ar    1  UNL1        0.1170
     14 N          69.5554   70.4764   12.0755 N.ar    1  UNL1       -0.2211
     15 C          70.5675   69.9437   11.1050 C.ar    1  UNL1        0.1990
     16 N          71.9042   70.6115   10.9732 N.ar    1  UNL1       -0.2211
     17 C          72.2288   71.8120   11.8119 C.ar    1  UNL1        0.1170
     18 C          71.7330   74.8838   12.9721 C.3     1  UNL1        0.0807
     19 C          70.8215   76.0234   13.3198 C.3     1  UNL1        0.0416
     20 C          71.0132   77.3620   12.6708 C.3     1  UNL1        0.0939
     21 N          72.1163   77.5612   11.6741 N.pl3   1  UNL1       -0.2931
     22 C          73.0278   76.4218   11.3264 C.3     1  UNL1        0.0939
     23 C          72.8361   75.0830   11.9755 C.3     1  UNL1        0.0416
     24 C          72.3080   78.8999   11.0251 C.ar    1  UNL1        0.1317
     25 C          72.2237   80.1513   11.8479 C.ar    1  UNL1        0.0343
     26 C          72.4154   81.4899   11.1989 C.ar    1  UNL1        0.0083
     27 C          72.6914   81.5772    9.7271 C.ar    1  UNL1        0.0906
     28 C          72.7756   80.3259    8.9043 C.ar    1  UNL1        0.1041
     29 N          72.5840   78.9873    9.5533 N.ar    1  UNL1       -0.2292
     30 C          72.8830   82.9159    9.0781 C.3     1  UNL1        0.4200
     31 F          73.0747   84.2546    8.4291 F       1  UNL1       -0.1658
     32 F          72.1336   83.5681   10.2019 F       1  UNL1       -0.1658
     33 F          73.6324   82.2638    7.9543 F       1  UNL1       -0.1658
@<TRIPOS>BOND
     1     8     9    1
     2     9    10    1
     3     9    11    1
     4     9     2    1
     5     2     3   ar
     6     3     4   ar
     7     4     5   ar
     8     5     1    1
     9     1    12    1
    10    12    13   ar
    11    13    14   ar
    12    14    15   ar
    13    15    16   ar
    14    16    17   ar
    15     1    18    1
    16    18    19    1
    17    19    20    1
    18    20    21    1
    19    21    24    1
    20    24    25   ar
    21    25    26   ar
    22    26    27   ar
    23    27    30    1
    24    30    31    1
    25    30    32    1
    26    30    33    1
    27    27    28   ar
    28    28    29   ar
    29    21    22    1
    30    22    23    1
    31     5     6   ar
    32     6     7   ar
    33     7     2   ar
    34    17    12   ar
    35    23    18    1
    36    29    24   ar
@<TRIPOS>MOLECULE
*****
 33 36 0 0 0
SMALL
GASTEIGER

@<TRIPOS>ATOM
      1 N          72.6206   73.4790   13.6431 N.pl3   1  UNL1       -0.2860
      2 C          71.9034   73.1797   18.0755 C.ar    1  UNL1        0.0715
      3 C          70.7829   72.9127   17.1147 C.ar    1  UNL1        0.0051
      4 C          71.0220   73.0124   15.6372 C.ar    1  UNL1        0.0148
      5 C          72.3816   73.3792   15.1205 C.ar    1  UNL1        0.0516
      6 C          73.5020   73.6463   16.0813 C.ar    1  UNL1        0.0148
      7 C          73.2630   73.5466   17.5588 C.ar    1  UNL1        0.0051
      8 F          71.4252   72.9802   21.0304 F       1  UNL1       -0.1659
      9 C          71.6643   73.0800   19.5529 C.3     1  UNL1        0.4186
     10 F          70.5666   72.0874   19.3083 F       1  UNL1       -0.1659
     11 F          72.7620   74.0725   19.7976 F       1  UNL1       -0.1659
     12 C          72.9443   72.2471   12.8508 C.ar    1  UNL1        0.0904
     13 C          72.9224   72.2923   11.3517 C.ar    1  UNL1        0.1170
     14 N          73.2461   71.0603   10.5594 N.ar    1  UNL1       -0.2211
     15 C          73.5916   69.7833   11.2663 C.ar    1  UNL1        0.1990
     16 N          73.6134   69.7381   12.7655 N.ar    1  UNL1       -0.2211
     17 C          73.2898   70.9700   13.5578 C.ar    1  UNL1        0.1170
     18 C          72.5361   74.8106   12.9579 C.3     1  UNL1        0.0807
     19 C          73.6329   75.2495   12.0335 C.3     1  UNL1        0.0416
     20 C          73.5484   76.5811   11.3483 C.3     1  UNL1        0.0939
     21 N          72.3670   77.4740   11.5874 N.pl3   1  UNL1       -0.2931
     22 C          71.2701   77.0352   12.5117 C.3     1  UNL1        0.0939
     23 C          71.3547   75.7035   13.1970 C.3     1  UNL1        0.0416
     24 C          72.2824   78.8056   10.9021 C.ar    1  UNL1        0.1317
     25 C          72.2463   78.8774    9.4043 C.ar    1  UNL1        0.0343
     26 C          72.1618   80.2090    8.7191 C.ar    1  UNL1        0.0083
     27 C          72.1134   81.4689    9.5317 C.ar    1  UNL1        0.0906
     28 C          72.1495   81.3972   11.0295 C.ar    1  UNL1        0.1041
     29 N          72.2340   80.0655   11.7147 N.ar    1  UNL1       -0.2292
     30 C          72.0289   82.8006    8.8464 C.3     1  UNL1        0.4200
     31 F          71.9443   84.1322    8.1611 F       1  UNL1       -0.1658
     32 F          72.0672   83.4887   10.1787 F       1  UNL1       -0.1658
     33 F          71.9905   82.1125    7.5141 F       1  UNL1       -0.1658
@<TRIPOS>BOND
     1     8     9    1
     2     9    10    1
     3     9    11    1
     4     9     2    1
     5     2     3   ar
     6     3     4   ar
     7     4     5   ar
     8     5     1    1
     9     1    12    1
    10    12    13   ar
    11    13    14   ar
    12    14    15   ar
    13    15    16   ar
    14    16    17   ar
    15     1    18    1
    16    18    19    1
    17    19    20    1
    18    20    21    1
    19    21    24    1
    20    24    25   ar
    21    25    26   ar
    22    26    27   ar
    23    27    30    1
    24    30    31    1
    25    30    32    1
    26    30    33    1
    27    27    28   ar
    28    28    29   ar
    29    21    22    1
    30    22    23    1
    31     5     6   ar
    32     6     7   ar
    33     7     2   ar
    34    17    12   ar
    35    23    18    1
    36    29    24   ar
@<TRIPOS>MOLECULE
*****
 33 36 0 0 0
SMALL
GASTEIGER

@<TRIPOS>ATOM
      1 N          62.5206   84.2843   12.2605 N.pl3   1  UNL1       -0.2860
      2 C          62.8887   79.9354   11.1642 C.ar    1  UNL1        0.0715
      3 C          62.3240   80.3276   12.4973 C.ar    1  UNL1        0.0051
      4 C          62.2013   81.7772   12.8627 C.ar    1  UNL1        0.0148
      5 C          62.6433   82.8346   11.8951 C.ar    1  UNL1        0.0516
      6 C          63.2080   82.4424   10.5620 C.ar    1  UNL1        0.0148
      7 C          63.3307   80.9928   10.1965 C.ar    1  UNL1        0.0051
      8 F          63.1340   77.0362   10.4333 F       1  UNL1       -0.1659
      9 C          63.0114   78.4858   10.7987 C.3     1  UNL1        0.4186
     10 F          63.3055   78.8687    9.3786 F       1  UNL1       -0.1659
     11 F          62.7172   78.1029   12.2189 F       1  UNL1       -0.1659
     12 C          62.9719   84.7583   13.6102 C.ar    1  UNL1        0.0904
     13 C          62.1098   84.5223   14.8148 C.ar    1  UNL1        0.1170
     14 N          62.5611   84.9964   16.1645 N.ar    1  UNL1       -0.2211
     15 C          63.8745   85.7063   16.3096 C.ar    1  UNL1        0.1990
     16 N          64.7366   85.9422   15.1049 N.ar    1  UNL1       -0.2211
     17 C          64.2853   85.4682   13.7553 C.ar    1  UNL1        0.1170
     18 C          61.9467   85.2599   11.2763 C.3     1  UNL1        0.0807
     19 C          62.1193   85.0294    9.8042 C.3     1  UNL1        0.0416
     20 C          61.5453   86.0051    8.8200 C.3     1  UNL1        0.0939
     21 N          60.7987   87.2111    9.3078 N.pl3   1  UNL1       -0.2931
     22 C          60.6261   87.4416   10.7799 C.3     1  UNL1        0.0939
     23 C          61.2000   86.4659   11.7642 C.3     1  UNL1        0.0416
     24 C          60.2248   88.1868    8.3235 C.ar    1  UNL1        0.1317
     25 C          59.2009   87.7315    7.3263 C.ar    1  UNL1        0.0343
     26 C          58.6270   88.7071    6.3421 C.ar    1  UNL1        0.0083
     27 C          59.0769   90.1380    6.3551 C.ar    1  UNL1        0.0906
     28 C          60.1008   90.5933    7.3523 C.ar    1  UNL1        0.1041
     29 N          60.6747   89.6176    8.3365 N.ar    1  UNL1       -0.2292
     30 C          58.5030   91.1136    5.3708 C.3     1  UNL1        0.4200
     31 F          57.9290   92.0892    4.3865 F       1  UNL1       -0.1658
     32 F          59.8785   91.6439    5.0942 F       1  UNL1       -0.1658
     33 F          57.1274   90.5834    5.6474 F       1  UNL1       -0.1658
@<TRIPOS>BOND
     1     8     9    1
     2     9    10    1
     3     9    11    1
     4     9     2    1
     5     2     3   ar
     6     3     4   ar
     7     4     5   ar
     8     5     1    1
     9     1    12    1
    10    12    13   ar
    11    13    14   ar
    12    14    15   ar
    13    15    16   ar
    14    16    17   ar
    15     1    18    1
    16    18    19    1
    17    19    20    1
    18    20    21    1
    19    21    24    1
    20    24    25   ar
    21    25    26   ar
    22    26    27   ar
    23    27    30    1
    24    30    31    1
    25    30    32    1
    26    30    33    1
    27    27    28   ar
    28    28    29   ar
    29    21    22    1
    30    22    23    1
    31     5     6   ar
    32     6     7   ar
    33     7     2   ar
    34    17    12   ar
    35    23    18    1
    36    29    24   ar
@<TRIPOS>MOLECULE
*****
 33 36 0 0 0
SMALL
GASTEIGER

@<TRIPOS>ATOM
      1 N          62.4619   88.9492   12.4040 N.pl3   1  UNL1       -0.2860
      2 C          65.9935   91.1626   14.1006 C.ar    1  UNL1        0.0715
      3 C          65.4174   89.9911   14.8391 C.ar    1  UNL1        0.0051
      4 C          64.2402   89.2532   14.2735 C.ar    1  UNL1        0.0148
      5 C          63.6391   89.6870   12.9695 C.ar    1  UNL1        0.0516
      6 C          64.2152   90.8586   12.2310 C.ar    1  UNL1        0.0148
      7 C          65.3924   91.5964   12.7966 C.ar    1  UNL1        0.0051
      8 F          68.3479   92.6383   15.2316 F       1  UNL1       -0.1659
      9 C          67.1707   91.9005   14.6661 C.3     1  UNL1        0.4186
     10 F          66.3865   92.1986   15.9095 F       1  UNL1       -0.1659
     11 F          67.9549   91.6023   13.4227 F       1  UNL1       -0.1659
     12 C          61.1987   89.6895   12.0784 C.ar    1  UNL1        0.0904
     13 C          59.9361   89.3850   12.8288 C.ar    1  UNL1        0.1170
     14 N          58.6728   90.1254   12.5032 N.ar    1  UNL1       -0.2211
     15 C          58.6721   91.1703   11.4270 C.ar    1  UNL1        0.1990
     16 N          59.9347   91.4749   10.6765 N.ar    1  UNL1       -0.2211
     17 C          61.1979   90.7345   11.0022 C.ar    1  UNL1        0.1170
     18 C          62.5479   87.4710   12.1641 C.3     1  UNL1        0.0807
     19 C          61.8909   86.8674   10.9582 C.3     1  UNL1        0.0416
     20 C          61.9770   85.3893   10.7183 C.3     1  UNL1        0.0939
     21 N          62.7200   84.5146   11.6842 N.pl3   1  UNL1       -0.2931
     22 C          63.3769   85.1182   12.8901 C.3     1  UNL1        0.0939
     23 C          63.2909   86.5964   13.1300 C.3     1  UNL1        0.0416
     24 C          62.8060   83.0364   11.4443 C.ar    1  UNL1        0.1317
     25 C          63.3618   82.5176   10.1513 C.ar    1  UNL1        0.0343
     26 C          63.4478   81.0394    9.9114 C.ar    1  UNL1        0.0083
     27 C          62.9779   80.0801   10.9645 C.ar    1  UNL1        0.0906
     28 C          62.4221   80.5989   12.2574 C.ar    1  UNL1        0.1041
     29 N          62.3361   82.0771   12.4973 N.ar    1  UNL1       -0.2292
     30 C          63.0639   78.6019   10.7245 C.3     1  UNL1        0.4200
     31 F          63.1499   77.1237   10.4846 F       1  UNL1       -0.1658
     32 F          63.4203   78.8554    9.2897 F       1  UNL1       -0.1658
     33 F          62.7076   78.3483   12.1593 F       1  UNL1       -0.1658
@<TRIPOS>BOND
     1     8     9    1
     2     9    10    1
     3     9    11    1
     4     9     2    1
     5     2     3   ar
     6     3     4   ar
     7     4     5   ar
     8     5     1    1
     9     1    12    1
    10    12    13   ar
    11    13    14   ar
    12    14    15   ar
    13    15    16   ar
    14    16    17   ar
    15     1    18    1
    16    18    19    1
    17    19    20    1
    18    20    21    1
    19    21    24    1
    20    24    25   ar
    21    25    26   ar
    22    26    27   ar
    23    27    30    1
    24    30    31    1
    25    30    32    1
    26    30    33    1
    27    27    28   ar
    28    28    29   ar
    29    21    22    1
    30    22    23    1
    31     5     6   ar
    32     6     7   ar
    33     7     2   ar
    34    17    12   ar
    35    23    18    1
    36    29    24   ar
@<TRIPOS>MOLECULE
*****
 33 36 0 0 0
SMALL
GASTEIGER

@<TRIPOS>ATOM
      1 N          72.7244   77.4493   13.7667 N.pl3   1  UNL1       -0.2860
      2 C          71.9506   73.0490   14.3039 C.ar    1  UNL1        0.0715
      3 C          73.0970   73.5106   13.4539 C.ar    1  UNL1        0.0051
      4 C          73.3549   74.9774   13.2748 C.ar    1  UNL1        0.0148
      5 C          72.4665   75.9825   13.9458 C.ar    1  UNL1        0.0516
      6 C          71.3201   75.5209   14.7959 C.ar    1  UNL1        0.0148
      7 C          71.0622   74.0541   14.9749 C.ar    1  UNL1        0.0051
      8 F          71.4348   70.1155   14.6621 F       1  UNL1       -0.1659
      9 C          71.6927   71.5822   14.4830 C.3     1  UNL1        0.4186
     10 F          73.1399   71.3681   14.8142 F       1  UNL1       -0.1659
     11 F          70.2454   71.7963   14.1519 F       1  UNL1       -0.1659
     12 C          72.9386   78.3250   14.9655 C.ar    1  UNL1        0.0904
     13 C          72.6735   79.7986   14.8749 C.ar    1  UNL1        0.1170
     14 N          72.8877   80.6743   16.0738 N.ar    1  UNL1       -0.2211
     15 C          73.3670   80.0764   17.3632 C.ar    1  UNL1        0.1990
     16 N          73.6321   78.6028   17.4539 N.ar    1  UNL1       -0.2211
     17 C          73.4179   77.7271   16.2551 C.ar    1  UNL1        0.1170
     18 C          72.7682   78.0403   12.3888 C.3     1  UNL1        0.0807
     19 C          71.9939   79.2881   12.0829 C.3     1  UNL1        0.0416
     20 C          72.0376   79.8792   10.7050 C.3     1  UNL1        0.0939
     21 N          72.8557   79.2225    9.6329 N.pl3   1  UNL1       -0.2931
     22 C          73.6301   77.9748    9.9386 C.3     1  UNL1        0.0939
     23 C          73.5863   77.3837   11.3166 C.3     1  UNL1        0.0416
     24 C          72.8995   79.8136    8.2549 C.ar    1  UNL1        0.1317
     25 C          73.2516   78.9509    7.0795 C.ar    1  UNL1        0.0343
     26 C          73.2953   79.5420    5.7017 C.ar    1  UNL1        0.0083
     27 C          72.9869   80.9959    5.4992 C.ar    1  UNL1        0.0906
     28 C          72.6348   81.8587    6.6745 C.ar    1  UNL1        0.1041
     29 N          72.5911   81.2676    8.0524 N.ar    1  UNL1       -0.2292
     30 C          73.0307   81.5871    4.1212 C.3     1  UNL1        0.4200
     31 F          73.0744   82.1782    2.7433 F       1  UNL1       -0.1658
     32 F          73.3982   80.2464    3.5577 F       1  UNL1       -0.1658
     33 F          72.6632   82.9277    4.6847 F       1  UNL1       -0.1658
@<TRIPOS>BOND
     1     8     9    1
     2     9    10    1
     3     9    11    1
     4     9     2    1
     5     2     3   ar
     6     3     4   ar
     7     4     5   ar
     8     5     1    1
     9     1    12    1
    10    12    13   ar
    11    13    14   ar
    12    14    15   ar
    13    15    16   ar
    14    16    17   ar
    15     1    18    1
    16    18    19    1
    17    19    20    1
    18    20    21    1
    19    21    24    1
    20    24    25   ar
    21    25    26   ar
    22    26    27   ar
    23    27    30    1
    24    30    31    1
    25    30    32    1
    26    30    33    1
    27    27    28   ar
    28    28    29   ar
    29    21    22    1
    30    22    23    1
    31     5     6   ar
    32     6     7   ar
    33     7     2   ar
    34    17    12   ar
    35    23    18    1
    36    29    24   ar
@<TRIPOS>MOLECULE
*****
 33 36 0 0 0
SMALL
GASTEIGER

@<TRIPOS>ATOM
      1 N          62.5467   86.3711   12.4514 N.pl3   1  UNL1       -0.2860
      2 C          60.0256   86.9574    8.7703 C.ar    1  UNL1        0.0715
      3 C          61.1820   86.0025    8.7431 C.ar    1  UNL1        0.0051
      4 C          62.0224   85.8071    9.9701 C.ar    1  UNL1        0.0148
      5 C          61.7063   86.5665   11.2244 C.ar    1  UNL1        0.0516
      6 C          60.5499   87.5214   11.2517 C.ar    1  UNL1        0.0148
      7 C          59.7095   87.7168   10.0246 C.ar    1  UNL1        0.0051
      8 F          58.3448   87.3483    6.3163 F       1  UNL1       -0.1659
      9 C          59.1852   87.1528    7.5433 C.3     1  UNL1        0.4186
     10 F          59.3899   85.7135    7.1739 F       1  UNL1       -0.1659
     11 F          58.9805   88.5922    7.9128 F       1  UNL1       -0.1659
     12 C          62.5369   85.0517   13.1648 C.ar    1  UNL1        0.0904
     13 C          62.7434   83.7811   12.3947 C.ar    1  UNL1        0.1170
     14 N          62.7336   82.4616   13.1083 N.ar    1  UNL1       -0.2211
     15 C          62.5173   82.4128   14.5917 C.ar    1  UNL1        0.1990
     16 N          62.3108   83.6834   15.3618 N.ar    1  UNL1       -0.2211
     17 C          62.3206   85.0028   14.6484 C.ar    1  UNL1        0.1170
     18 C          63.3969   87.4950   12.9650 C.3     1  UNL1        0.0807
     19 C          63.4033   88.8160   12.2541 C.3     1  UNL1        0.0416
     20 C          64.2535   89.9399   12.7677 C.3     1  UNL1        0.0939
     21 N          65.0973   89.7431   13.9921 N.pl3   1  UNL1       -0.2931
     22 C          65.0910   88.4222   14.7029 C.3     1  UNL1        0.0939
     23 C          64.2408   87.2982   14.1894 C.3     1  UNL1        0.0416
     24 C          65.9476   90.8671   14.5057 C.ar    1  UNL1        0.1317
     25 C          65.4926   91.6727   15.6864 C.ar    1  UNL1        0.0343
     26 C          66.3428   92.7967   16.1999 C.ar    1  UNL1        0.0083
     27 C          67.6480   93.1151   15.5327 C.ar    1  UNL1        0.0906
     28 C          68.1030   92.3095   14.3521 C.ar    1  UNL1        0.1041
     29 N          67.2528   91.1855   13.8385 N.ar    1  UNL1       -0.2292
     30 C          68.4983   94.2391   16.0463 C.3     1  UNL1        0.4200
     31 F          69.3484   95.3632   16.5598 F       1  UNL1       -0.1658
     32 F          69.2820   93.2668   16.8771 F       1  UNL1       -0.1658
     33 F          67.7145   95.2115   15.2155 F       1  UNL1       -0.1658
@<TRIPOS>BOND
     1     8     9    1
     2     9    10    1
     3     9    11    1
     4     9     2    1
     5     2     3   ar
     6     3     4   ar
     7     4     5   ar
     8     5     1    1
     9     1    12    1
    10    12    13   ar
    11    13    14   ar
    12    14    15   ar
    13    15    16   ar
    14    16    17   ar
    15     1    18    1
    16    18    19    1
    17    19    20    1
    18    20    21    1
    19    21    24    1
    20    24    25   ar
    21    25    26   ar
    22    26    27   ar
    23    27    30    1
    24    30    31    1
    25    30    32    1
    26    30    33    1
    27    27    28   ar
    28    28    29   ar
    29    21    22    1
    30    22    23    1
    31     5     6   ar
    32     6     7   ar
    33     7     2   ar
    34    17    12   ar
    35    23    18    1
    36    29    24   ar
