@<TRIPOS>MOLECULE
*****
 18 17 0 0 0
SMALL
GASTEIGER

@<TRIPOS>ATOM
      1 CD         61.8510   81.6868   14.1540 C.3     1  ARG1        0.1740
      2 NE         62.6277   82.2623   15.3008 N.pl3   1  ARG1       -0.2625
      3 HE         62.8626   81.6949   16.0703 H       1  ARG1        0.2587
      4 NH1        62.0110   84.7860   15.3310 N.pl3   1  ARG1       -0.1298
      5 CZ         63.0468   83.7024   15.2753 C.cat   1  ARG1        0.3769
      6 NH2        64.5015   84.0589   15.1940 N.pl3   1  ARG1       -0.2892
      7 HH1        62.2860   85.7311   15.3142 H       1  ARG1        0.3062
      8 HH21       64.7765   85.0041   15.1772 H       1  ARG1        0.2546
      9 HH22       65.1813   83.3478   15.1574 H       1  ARG1        0.2546
     10 CG         62.5706   81.1875   12.9363 C.3     1  ARG1        0.0446
     11 CB         62.6487   82.0441   11.7073 C.3     1  ARG1        0.0248
     12 CA         63.4436   83.3159   11.7288 C.3     1  ARG1        0.0880
     13 N          64.8834   83.2934   12.1490 N.3     1  ARG1       -0.3179
     14 H1         65.2653   84.2382   12.1047 H       1  ARG1        0.1191
     15 H2         65.4106   82.6839   11.5237 H       1  ARG1        0.1191
     16 C          62.7988   84.6103   11.3302 C.2     1  ARG1        0.0644
     17 O          62.1216   85.4604   12.3640 O.co2   1  ARG1       -0.5478
     18 OXT        62.8311   85.0544    9.8979 O.co2   1  ARG1       -0.5478
@<TRIPOS>UNITY_ATOM_ATTR
17 1
charge -1
@<TRIPOS>BOND
     1     4     5    2
     2     5     6    1
     3     5     2    1
     4     2     1    1
     5     1    10    1
     6    10    11    1
     7    11    12    1
     8    12    13    1
     9    12    16    1
    10    16    17   ar
    11    16    18   ar
    12     4     7    1
    13     6     8    1
    14     6     9    1
    15     2     3    1
    16    13    14    1
    17    13    15    1
@<TRIPOS>MOLECULE
*****
 18 17 0 0 0
SMALL
GASTEIGER

@<TRIPOS>ATOM
      1 CD         64.6076   85.5022   14.6894 C.3     1  ARG1        0.1740
      2 NE         64.2545   85.5592   16.1461 N.pl3   1  ARG1       -0.2625
      3 HE         64.7615   85.0220   16.7969 H       1  ARG1        0.2587
      4 NH1        61.8677   85.8178   17.1395 N.pl3   1  ARG1       -0.1298
      5 CZ         63.1288   86.4348   16.6112 C.cat   1  ARG1        0.3769
      6 NH2        63.2642   87.9273   16.5481 N.pl3   1  ARG1       -0.2892
      7 HH1        61.1289   86.3925   17.4448 H       1  ARG1        0.3062
      8 HH21       62.5254   88.5020   16.8533 H       1  ARG1        0.2546
      9 HH22       64.0919   88.3323   16.2014 H       1  ARG1        0.2546
     10 CG         63.5836   85.0608   13.6862 C.3     1  ARG1        0.0446
     11 CB         63.4646   83.6098   13.3247 C.3     1  ARG1        0.0248
     12 CA         62.6983   82.6758   14.2137 C.3     1  ARG1        0.0880
     13 N          62.5368   82.9911   15.6713 N.3     1  ARG1       -0.3179
     14 H1         61.9927   82.2544   16.1203 H       1  ARG1        0.1191
     15 H2         62.0523   83.8827   15.7746 H       1  ARG1        0.1191
     16 C          62.0935   81.4263   13.6451 C.2     1  ARG1        0.0644
     17 O          60.7758   80.9290   14.1612 O.co2   1  ARG1       -0.5478
     18 OXT        62.8064   80.6743   12.5606 O.co2   1  ARG1       -0.5478
@<TRIPOS>UNITY_ATOM_ATTR
17 1
charge -1
@<TRIPOS>BOND
     1     4     5    2
     2     5     6    1
     3     5     2    1
     4     2     1    1
     5     1    10    1
     6    10    11    1
     7    11    12    1
     8    12    13    1
     9    12    16    1
    10    16    17   ar
    11    16    18   ar
    12     4     7    1
    13     6     8    1
    14     6     9    1
    15     2     3    1
    16    13    14    1
    17    13    15    1
@<TRIPOS>MOLECULE
*****
 18 17 0 0 0
SMALL
GASTEIGER

@<TRIPOS>ATOM
      1 CD         65.7452   92.7072   10.7896 C.3     1  ARG1        0.1740
      2 NE         66.9008   93.6634   10.8047 N.pl3   1  ARG1       -0.2625
      3 HE         67.0138   94.2870   11.5581 H       1  ARG1        0.2587
      4 NH1        67.5874   94.4492    8.4254 N.pl3   1  ARG1       -0.1298
      5 CZ         67.8841   93.6695    9.6720 C.cat   1  ARG1        0.3769
      6 NH2        69.1642   92.8960    9.7859 N.pl3   1  ARG1       -0.2892
      7 HH1        68.2327   94.4532    7.6819 H       1  ARG1        0.3062
      8 HH21       69.8096   92.9000    9.0425 H       1  ARG1        0.2546
      9 HH22       69.3590   92.3843   10.6041 H       1  ARG1        0.2546
     10 CG         64.9844   92.4302   12.0522 C.3     1  ARG1        0.0446
     11 CB         65.6394   91.6785   13.1730 C.3     1  ARG1        0.0248
     12 CA         66.5547   92.3940   14.1218 C.3     1  ARG1        0.0880
     13 N          65.9869   93.1397   15.2929 N.3     1  ARG1       -0.3179
     14 H1         66.7460   93.5625   15.8272 H       1  ARG1        0.1191
     15 H2         65.4701   92.4935   15.8893 H       1  ARG1        0.1191
     16 C          68.0379   92.3639   13.8994 C.2     1  ARG1        0.0644
     17 O          68.5978   91.7297   12.6608 O.co2   1  ARG1       -0.5478
     18 OXT        68.9611   92.9680   14.9157 O.co2   1  ARG1       -0.5478
@<TRIPOS>UNITY_ATOM_ATTR
17 1
charge -1
@<TRIPOS>BOND
     1     4     5    2
     2     5     6    1
     3     5     2    1
     4     2     1    1
     5     1    10    1
     6    10    11    1
     7    11    12    1
     8    12    13    1
     9    12    16    1
    10    16    17   ar
    11    16    18   ar
    12     4     7    1
    13     6     8    1
    14     6     9    1
    15     2     3    1
    16    13    14    1
    17    13    15    1
@<TRIPOS>MOLECULE
*****
 18 17 0 0 0
SMALL
GASTEIGER

@<TRIPOS>ATOM
      1 CD         66.1063   93.4503   12.6845 C.3     1  ARG1        0.1740
      2 NE         67.2899   93.2149   13.5753 N.pl3   1  ARG1       -0.2625
      3 HE         68.1741   93.0349   13.1817 H       1  ARG1        0.2587
      4 NH1        65.7852   92.9815   15.6805 N.pl3   1  ARG1       -0.1298
      5 CZ         67.1262   93.2537   15.0659 C.cat   1  ARG1        0.3769
      6 NH2        68.3035   93.5647   15.9419 N.pl3   1  ARG1       -0.2892
      7 HH1        65.6778   93.0069   16.6588 H       1  ARG1        0.3062
      8 HH21       68.1960   93.5901   16.9202 H       1  ARG1        0.2546
      9 HH22       69.1836   93.7433   15.5385 H       1  ARG1        0.2546
     10 CG         66.1542   94.5289   11.6432 C.3     1  ARG1        0.0446
     11 CB         66.1695   94.1662   10.1878 C.3     1  ARG1        0.0248
     12 CA         67.4702   94.1085    9.4429 C.3     1  ARG1        0.0880
     13 N          67.9555   95.3098    8.6871 N.3     1  ARG1       -0.3179
     14 H1         68.8488   95.0948    8.2441 H       1  ARG1        0.1191
     15 H2         68.0750   96.0915    9.3314 H       1  ARG1        0.1191
     16 C          68.2856   92.8495    9.4538 C.2     1  ARG1        0.0644
     17 O          68.6546   92.2062   10.7576 O.co2   1  ARG1       -0.5478
     18 OXT        68.7319   92.2338    8.1608 O.co2   1  ARG1       -0.5478
@<TRIPOS>UNITY_ATOM_ATTR
17 1
charge -1
@<TRIPOS>BOND
     1     4     5    2
     2     5     6    1
     3     5     2    1
     4     2     1    1
     5     1    10    1
     6    10    11    1
     7    11    12    1
     8    12    13    1
     9    12    16    1
    10    16    17   ar
    11    16    18   ar
    12     4     7    1
    13     6     8    1
    14     6     9    1
    15     2     3    1
    16    13    14    1
    17    13    15    1
@<TRIPOS>MOLECULE
*****
 18 17 0 0 0
SMALL
GASTEIGER

@<TRIPOS>ATOM
      1 CD         59.3168   89.3467    6.6563 C.3     1  ARG1        0.1740
      2 NE         59.6449   90.4931    5.7463 N.pl3   1  ARG1       -0.2625
      3 HE         60.5708   90.6298    5.4410 H       1  ARG1        0.2587
      4 NH1        57.1385   90.9620    5.2480 N.pl3   1  ARG1       -0.1298
      5 CZ         58.5622   91.4313    5.3015 C.cat   1  ARG1        0.3769
      6 NH2        58.9033   92.8386    4.9103 N.pl3   1  ARG1       -0.2892
      7 HH1        56.4280   91.5777    4.9560 H       1  ARG1        0.3062
      8 HH21       58.1928   93.4543    4.6183 H       1  ARG1        0.2546
      9 HH22       59.8378   93.1465    4.9454 H       1  ARG1        0.2546
     10 CG         59.9372   89.2703    8.0199 C.3     1  ARG1        0.0446
     11 CB         59.9588   87.9669    8.7620 C.3     1  ARG1        0.0248
     12 CA         59.6741   86.6856    8.0360 C.3     1  ARG1        0.0880
     13 N          58.2621   86.3194    7.6864 N.3     1  ARG1       -0.3179
     14 H1         58.2539   85.4234    7.1990 H       1  ARG1        0.1191
     15 H2         57.8639   87.0386    7.0825 H       1  ARG1        0.1191
     16 C          60.8013   85.7704    7.6595 C.2     1  ARG1        0.0644
     17 O          60.6151   84.7621    6.5646 O.co2   1  ARG1       -0.5478
     18 OXT        62.1148   85.8634    8.3779 O.co2   1  ARG1       -0.5478
@<TRIPOS>UNITY_ATOM_ATTR
17 1
charge -1
@<TRIPOS>BOND
     1     4     5    2
     2     5     6    1
     3     5     2    1
     4     2     1    1
     5     1    10    1
     6    10    11    1
     7    11    12    1
     8    12    13    1
     9    12    16    1
    10    16    17   ar
    11    16    18   ar
    12     4     7    1
    13     6     8    1
    14     6     9    1
    15     2     3    1
    16    13    14    1
    17    13    15    1
@<TRIPOS>MOLECULE
*****
 18 17 0 0 0
SMALL
GASTEIGER

@<TRIPOS>ATOM
      1 CD         65.7344   92.5864   12.6897 C.3     1  ARG1        0.1740
      2 NE         66.9315   93.0614   13.4587 N.pl3   1  ARG1       -0.2625
      3 HE         67.0143   94.0115   13.7030 H       1  ARG1        0.2587
      4 NH1        68.0412   91.5449   15.2528 N.pl3   1  ARG1       -0.1298
      5 CZ         68.0024   92.0889   13.8555 C.cat   1  ARG1        0.3769
      6 NH2        69.0344   91.6603   12.8549 N.pl3   1  ARG1       -0.2892
      7 HH1        68.7441   90.9066   15.5132 H       1  ARG1        0.3062
      8 HH21       69.7373   91.0220   13.1153 H       1  ARG1        0.2546
      9 HH22       69.0089   92.0173   11.9377 H       1  ARG1        0.2546
     10 CG         65.5991   92.9175   11.2330 C.3     1  ARG1        0.0446
     11 CB         66.6723   92.5086   10.2681 C.3     1  ARG1        0.0248
     12 CA         67.6905   93.5103    9.8101 C.3     1  ARG1        0.0880
     13 N          69.1444   93.1424    9.7813 N.3     1  ARG1       -0.3179
     14 H1         69.6895   93.9368    9.4464 H       1  ARG1        0.1191
     15 H2         69.2818   92.3481    9.1564 H       1  ARG1        0.1191
     16 C          67.2548   94.8800    9.3809 C.2     1  ARG1        0.0644
     17 O          66.9400   95.1495    7.9393 O.co2   1  ARG1       -0.5478
     18 OXT        67.1338   95.9802   10.3933 O.co2   1  ARG1       -0.5478
@<TRIPOS>UNITY_ATOM_ATTR
17 1
charge -1
@<TRIPOS>BOND
     1     4     5    2
     2     5     6    1
     3     5     2    1
     4     2     1    1
     5     1    10    1
     6    10    11    1
     7    11    12    1
     8    12    13    1
     9    12    16    1
    10    16    17   ar
    11    16    18   ar
    12     4     7    1
    13     6     8    1
    14     6     9    1
    15     2     3    1
    16    13    14    1
    17    13    15    1
@<TRIPOS>MOLECULE
*****
 18 17 0 0 0
SMALL
GASTEIGER

@<TRIPOS>ATOM
      1 CD         66.1531   92.5050   12.4745 C.3     1  ARG1        0.1740
      2 NE         66.7661   93.4890   13.4262 N.pl3   1  ARG1       -0.2625
      3 HE         66.6801   94.4553   13.2584 H       1  ARG1        0.2587
      4 NH1        68.8882   92.4274   14.4845 N.pl3   1  ARG1       -0.1298
      5 CZ         67.5102   93.0009   14.6338 C.cat   1  ARG1        0.3769
      6 NH2        66.8763   93.0862   15.9906 N.pl3   1  ARG1       -0.2892
      7 HH1        69.3766   92.1070   15.2770 H       1  ARG1        0.3062
      8 HH21       67.3647   92.7658   16.7831 H       1  ARG1        0.2546
      9 HH22       65.9719   93.4626   16.0885 H       1  ARG1        0.2546
     10 CG         64.8612   91.8281   12.8246 C.3     1  ARG1        0.0446
     11 CB         64.8447   90.7207   13.8363 C.3     1  ARG1        0.0248
     12 CA         63.5382   90.2051   14.3627 C.3     1  ARG1        0.0880
     13 N          62.3864   89.9864   13.4270 N.3     1  ARG1       -0.3179
     14 H1         61.5845   89.6361   13.9510 H       1  ARG1        0.1191
     15 H2         62.6512   89.3055   12.7152 H       1  ARG1        0.1191
     16 C          63.3834   89.9083   15.8249 C.2     1  ARG1        0.0644
     17 O          63.2261   88.4909   16.2899 O.co2   1  ARG1       -0.5478
     18 OXT        63.3860   91.0288   16.8221 O.co2   1  ARG1       -0.5478
@<TRIPOS>UNITY_ATOM_ATTR
17 1
charge -1
@<TRIPOS>BOND
     1     4     5    2
     2     5     6    1
     3     5     2    1
     4     2     1    1
     5     1    10    1
     6    10    11    1
     7    11    12    1
     8    12    13    1
     9    12    16    1
    10    16    17   ar
    11    16    18   ar
    12     4     7    1
    13     6     8    1
    14     6     9    1
    15     2     3    1
    16    13    14    1
    17    13    15    1
@<TRIPOS>MOLECULE
*****
 18 17 0 0 0
SMALL
GASTEIGER

@<TRIPOS>ATOM
      1 CD         61.2875   86.4681   10.5711 C.3     1  ARG1        0.1740
      2 NE         61.2159   87.7220   11.3912 N.pl3   1  ARG1       -0.2625
      3 HE         60.3694   87.9805   11.8223 H       1  ARG1        0.2587
      4 NH1        62.6640   89.7400   10.6292 N.pl3   1  ARG1       -0.1298
      5 CZ         62.4340   88.5820   11.5544 C.cat   1  ARG1        0.3769
      6 NH2        63.4222   88.2839   12.6428 N.pl3   1  ARG1       -0.2892
      7 HH1        63.4635   90.3045   10.7363 H       1  ARG1        0.3062
      8 HH21       64.2217   88.8483   12.7499 H       1  ARG1        0.2546
      9 HH22       63.2713   87.5238   13.2500 H       1  ARG1        0.2546
     10 CG         61.7786   86.5251    9.1550 C.3     1  ARG1        0.0446
     11 CB         60.8172   86.3342    8.0194 C.3     1  ARG1        0.0248
     12 CA         59.5940   87.1966    7.9193 C.3     1  ARG1        0.0880
     13 N          58.2364   86.5650    7.8292 N.3     1  ARG1       -0.3179
     14 H1         57.5256   87.2940    7.7681 H       1  ARG1        0.1191
     15 H2         58.0700   85.9968    8.6598 H       1  ARG1        0.1191
     16 C          59.7283   88.6906    7.9093 C.2     1  ARG1        0.0644
     17 O          60.0194   89.4260    9.1838 O.co2   1  ARG1       -0.5478
     18 OXT        59.5715   89.4491    6.6247 O.co2   1  ARG1       -0.5478
@<TRIPOS>UNITY_ATOM_ATTR
17 1
charge -1
@<TRIPOS>BOND
     1     4     5    2
     2     5     6    1
     3     5     2    1
     4     2     1    1
     5     1    10    1
     6    10    11    1
     7    11    12    1
     8    12    13    1
     9    12    16    1
    10    16    17   ar
    11    16    18   ar
    12     4     7    1
    13     6     8    1
    14     6     9    1
    15     2     3    1
    16    13    14    1
    17    13    15    1
@<TRIPOS>MOLECULE
*****
 18 17 0 0 0
SMALL
GASTEIGER

@<TRIPOS>ATOM
      1 CD         66.4994   93.4391   14.4724 C.3     1  ARG1        0.1740
      2 NE         66.9738   93.3389   13.0530 N.pl3   1  ARG1       -0.2625
      3 HE         67.8785   93.0026   12.8589 H       1  ARG1        0.2587
      4 NH1        65.3088   92.7122   11.1594 N.pl3   1  ARG1       -0.1298
      5 CZ         66.0697   93.7508   11.9291 C.cat   1  ARG1        0.3769
      6 NH2        65.9264   95.2014   11.5750 N.pl3   1  ARG1       -0.2892
      7 HH1        64.7155   92.9826   10.4218 H       1  ARG1        0.3062
      8 HH21       65.3331   95.4717   10.8375 H       1  ARG1        0.2546
      9 HH22       66.4258   95.8830   12.0802 H       1  ARG1        0.2546
     10 CG         66.1549   92.1959   15.2376 C.3     1  ARG1        0.0446
     11 CB         65.7602   90.9486   14.5036 C.3     1  ARG1        0.0248
     12 CA         64.3102   90.6399   14.2752 C.3     1  ARG1        0.0880
     13 N          63.4926   91.5089   13.3661 N.3     1  ARG1       -0.3179
     14 H1         62.5365   91.1557   13.3274 H       1  ARG1        0.1191
     15 H2         63.8974   91.4973   12.4299 H       1  ARG1        0.1191
     16 C          63.6777   89.4623   14.9558 C.2     1  ARG1        0.0644
     17 O          64.1555   88.0737   14.6500 O.co2   1  ARG1       -0.5478
     18 OXT        62.5676   89.6733   15.9422 O.co2   1  ARG1       -0.5478
@<TRIPOS>UNITY_ATOM_ATTR
17 1
charge -1
@<TRIPOS>BOND
     1     4     5    2
     2     5     6    1
     3     5     2    1
     4     2     1    1
     5     1    10    1
     6    10    11    1
     7    11    12    1
     8    12    13    1
     9    12    16    1
    10    16    17   ar
    11    16    18   ar
    12     4     7    1
    13     6     8    1
    14     6     9    1
    15     2     3    1
    16    13    14    1
    17    13    15    1
