@<TRIPOS>MOLECULE
*****
 49 52 0 0 0
SMALL
GASTEIGER

@<TRIPOS>ATOM
      1 C          62.3641   79.4808   13.1439 C.3     1  UNL1        0.0523
      2 C          62.9125   80.8751   13.0709 C.ar    1  UNL1        0.0650
      3 C          62.9302   81.6064   11.7614 C.ar    1  UNL1        0.0489
      4 C          63.4787   83.0006   11.6884 C.ar    1  UNL1        0.1325
      5 N          64.0094   83.6635   12.9248 N.ar    1  UNL1       -0.1991
      6 C          63.9917   82.9322   14.2343 C.ar    1  UNL1        0.2180
      7 N          63.4433   81.5380   14.3073 N.ar    1  UNL1       -0.2181
      8 N          64.5225   83.5951   15.4708 N.pl3   1  UNL1       -0.2977
      9 H          65.4319   83.3901   15.7875 H       1  UNL1        0.1500
     10 C          63.6677   84.5701   16.2248 C.3     1  UNL1        0.1395
     11 C          63.7271   86.0320   15.8937 C.ar    1  UNL1        0.1206
     12 C          63.2350   87.1529   16.7605 C.ar    1  UNL1        0.1149
     13 N          63.4927   88.4433   16.0402 N.ar    1  UNL1       -0.2305
     14 N          64.1441   88.1197   14.7283 N.ar    1  UNL1       -0.0641
     15 N          64.2889   86.6294   14.6378 N.ar    1  UNL1       -0.1314
     16 C          63.1579   89.8161   16.5435 C.3     1  UNL1        0.1307
     17 C          63.8484   91.0158   15.9656 C.3     1  UNL1        0.0435
     18 C          64.4054   92.0709   16.8748 C.3     1  UNL1        0.0706
     19 N          65.5364   92.9399   16.4107 N.3     1  UNL1       -0.2974
     20 H          65.8464   93.4771   17.2204 H       1  UNL1        0.1232
     21 C          66.7616   92.3183   15.8086 C.3     1  UNL1        0.0700
     22 C          67.0759   92.5332   14.3577 C.3     1  UNL1        0.0341
     23 C          66.5617   93.7526   13.6516 C.3     1  UNL1        0.0700
     24 N          65.8311   93.6129   12.3490 N.3     1  UNL1       -0.2985
     25 H          65.0158   94.2235   12.4017 H       1  UNL1        0.1232
     26 C          66.5284   93.9319   11.0599 C.3     1  UNL1        0.0540
     27 C          66.4950   95.3290   10.5149 C.3     1  UNL1        0.0157
     28 C          67.1924   95.6481    9.2258 C.3     1  UNL1        0.0014
     29 C          67.9232   94.5700    8.4817 C.3     1  UNL1        0.0001
     30 C          67.9567   93.1729    9.0266 C.3     1  UNL1        0.0014
     31 C          67.2592   92.8539   10.3158 C.3     1  UNL1        0.0157
     32 N          63.4963   83.7320   10.3788 N.pl3   1  UNL1       -0.3195
     33 H          64.0449   83.3948    9.6340 H       1  UNL1        0.1481
     34 C          62.6782   84.9771   10.2040 C.3     1  UNL1        0.0738
     35 C          62.6123   85.6493    8.8646 C.3     1  UNL1        0.0411
     36 C          61.7942   86.8943    8.6899 C.3     1  UNL1        0.0951
     37 N          61.0421   87.4672    9.8545 N.am    1  UNL1       -0.2794
     38 C          60.2240   88.7123    9.6797 C.2     1  UNL1        0.2270
     39 O          59.4719   89.2851   10.8442 O.2     1  UNL1       -0.2748
     40 C          61.1081   86.7950   11.1938 C.3     1  UNL1        0.0951
     41 C          61.9262   85.5499   11.3685 C.3     1  UNL1        0.0411
     42 C          60.1580   89.3845    8.3403 C.3     1  UNL1        0.1023
     43 C          59.3447   88.7774    7.2358 C.3     1  UNL1        0.0785
     44 N          58.4819   89.6498    6.3731 N.3     1  UNL1       -0.2924
     45 H          57.9017   90.2046    7.0024 H       1  UNL1        0.1236
     46 C          59.1130   90.6088    5.4076 C.3     1  UNL1        0.1110
     47 C          58.2891   91.6958    4.7835 C.2     1  UNL1        0.0663
     48 O          58.9378   92.7063    3.8845 O.co2   1  UNL1       -0.5477
     49 O          56.8164   91.7723    5.0582 O.co2   1  UNL1       -0.5477
@<TRIPOS>UNITY_ATOM_ATTR
48 1
charge -1
@<TRIPOS>BOND
     1     1     2    1
     2     2     3   ar
     3     3     4   ar
     4     4    32    1
     5    32    34    1
     6    34    35    1
     7    35    36    1
     8    36    37    1
     9    37    38   am
    10    38    39    2
    11    38    42    1
    12    42    43    1
    13    43    44    1
    14    44    46    1
    15    46    47    1
    16    47    48   ar
    17    47    49   ar
    18    37    40    1
    19    40    41    1
    20     4     5   ar
    21     5     6   ar
    22     6     8    1
    23     8    10    1
    24    10    11    1
    25    11    12   ar
    26    12    13   ar
    27    13    16    1
    28    16    17    1
    29    17    18    1
    30    18    19    1
    31    19    21    1
    32    21    22    1
    33    22    23    1
    34    23    24    1
    35    24    26    1
    36    26    27    1
    37    27    28    1
    38    28    29    1
    39    29    30    1
    40    30    31    1
    41    13    14   ar
    42    14    15   ar
    43     6     7   ar
    44     7     2   ar
    45    41    34    1
    46    15    11   ar
    47    31    26    1
    48    32    33    1
    49    44    45    1
    50     8     9    1
    51    19    20    1
    52    24    25    1
@<TRIPOS>MOLECULE
*****
 49 52 0 0 0
SMALL
GASTEIGER

@<TRIPOS>ATOM
      1 C          60.9785   80.6754   13.8147 C.3     1  UNL1        0.0523
      2 C          62.0911   81.6505   13.5670 C.ar    1  UNL1        0.0650
      3 C          62.6822   82.4203   14.7107 C.ar    1  UNL1        0.0489
      4 C          63.7948   83.3954   14.4630 C.ar    1  UNL1        0.1325
      5 N          64.3164   83.6006   13.0717 N.ar    1  UNL1       -0.1991
      6 C          63.7253   82.8307   11.9281 C.ar    1  UNL1        0.2180
      7 N          62.6127   81.8557   12.1757 N.ar    1  UNL1       -0.2181
      8 N          64.2469   83.0359   10.5366 N.pl3   1  UNL1       -0.2977
      9 H          65.0622   82.5689   10.2427 H       1  UNL1        0.1500
     10 C          63.5263   83.9526    9.5931 C.3     1  UNL1        0.1395
     11 C          62.6054   85.0082   10.1297 C.ar    1  UNL1        0.1206
     12 C          61.8460   86.0128    9.3148 C.ar    1  UNL1        0.1149
     13 N          61.0535   86.8700   10.2568 N.ar    1  UNL1       -0.2305
     14 N          61.3231   86.3950   11.6539 N.ar    1  UNL1       -0.0641
     15 N          62.2822   85.2444   11.5753 N.ar    1  UNL1       -0.1314
     16 C          60.1500   88.0031    9.8697 C.3     1  UNL1        0.1307
     17 C          59.7712   89.0406   10.8846 C.3     1  UNL1        0.0435
     18 C          60.6590   90.2284   11.1102 C.3     1  UNL1        0.0706
     19 N          61.5215   90.7425    9.9960 N.3     1  UNL1       -0.2974
     20 H          61.3639   91.7488    9.9419 H       1  UNL1        0.1232
     21 C          63.0069   90.5387   10.0421 C.3     1  UNL1        0.0700
     22 C          63.9084   91.6756   10.4226 C.3     1  UNL1        0.0341
     23 C          64.5347   91.7126   11.7850 C.3     1  UNL1        0.0700
     24 N          65.7795   92.5168   12.0167 N.3     1  UNL1       -0.2985
     25 H          66.4556   91.8928   12.4571 H       1  UNL1        0.1232
     26 C          66.4793   93.1659   10.8595 C.3     1  UNL1        0.0540
     27 C          66.1468   94.5781   10.4783 C.3     1  UNL1        0.0157
     28 C          66.8466   95.2271    9.3212 C.3     1  UNL1        0.0014
     29 C          67.8788   94.4640    8.5452 C.3     1  UNL1        0.0001
     30 C          68.2113   93.0518    8.9262 C.3     1  UNL1        0.0014
     31 C          67.5115   92.4028   10.0835 C.3     1  UNL1        0.0157
     32 N          64.3859   84.1652   15.6067 N.pl3   1  UNL1       -0.3195
     33 H          64.9235   83.6999   16.2877 H       1  UNL1        0.1481
     34 C          64.1578   85.6440   15.7129 C.3     1  UNL1        0.0738
     35 C          64.7887   86.5734   14.7187 C.3     1  UNL1        0.0411
     36 C          64.5606   88.0522   14.8249 C.3     1  UNL1        0.0951
     37 N          63.7016   88.6015   15.9251 N.am    1  UNL1       -0.2794
     38 C          63.4735   90.0802   16.0312 C.2     1  UNL1        0.2270
     39 O          62.6146   90.6296   17.1314 O.2     1  UNL1       -0.2748
     40 C          63.0707   87.6721   16.9191 C.3     1  UNL1        0.0951
     41 C          63.2988   86.1933   16.8130 C.3     1  UNL1        0.0411
     42 C          64.1044   91.0097   15.0371 C.3     1  UNL1        0.1023
     43 C          65.4319   91.6402   15.3375 C.3     1  UNL1        0.0785
     44 N          65.7021   93.0550   14.9189 N.3     1  UNL1       -0.2924
     45 H          65.1078   93.6511   15.4949 H       1  UNL1        0.1236
     46 C          67.0920   93.6117   15.0101 C.3     1  UNL1        0.1110
     47 C          68.2755   92.7009   14.8698 C.2     1  UNL1        0.0663
     48 O          69.1241   92.3841   16.0655 O.co2   1  UNL1       -0.5477
     49 O          68.6104   92.1068   13.5338 O.co2   1  UNL1       -0.5477
@<TRIPOS>UNITY_ATOM_ATTR
48 1
charge -1
@<TRIPOS>BOND
     1     1     2    1
     2     2     3   ar
     3     3     4   ar
     4     4    32    1
     5    32    34    1
     6    34    35    1
     7    35    36    1
     8    36    37    1
     9    37    38   am
    10    38    39    2
    11    38    42    1
    12    42    43    1
    13    43    44    1
    14    44    46    1
    15    46    47    1
    16    47    48   ar
    17    47    49   ar
    18    37    40    1
    19    40    41    1
    20     4     5   ar
    21     5     6   ar
    22     6     8    1
    23     8    10    1
    24    10    11    1
    25    11    12   ar
    26    12    13   ar
    27    13    16    1
    28    16    17    1
    29    17    18    1
    30    18    19    1
    31    19    21    1
    32    21    22    1
    33    22    23    1
    34    23    24    1
    35    24    26    1
    36    26    27    1
    37    27    28    1
    38    28    29    1
    39    29    30    1
    40    30    31    1
    41    13    14   ar
    42    14    15   ar
    43     6     7   ar
    44     7     2   ar
    45    41    34    1
    46    15    11   ar
    47    31    26    1
    48    32    33    1
    49    44    45    1
    50     8     9    1
    51    19    20    1
    52    24    25    1
@<TRIPOS>MOLECULE
*****
 49 52 0 0 0
SMALL
GASTEIGER

@<TRIPOS>ATOM
      1 C          62.3750   79.7066   13.1768 C.3     1  UNL1        0.0523
      2 C          62.9885   81.0598   12.9708 C.ar    1  UNL1        0.0650
      3 C          62.9104   81.7220   11.6271 C.ar    1  UNL1        0.0489
      4 C          63.5239   83.0752   11.4211 C.ar    1  UNL1        0.1325
      5 N          64.2155   83.7662   12.5587 N.ar    1  UNL1       -0.1991
      6 C          64.2935   83.1041   13.9023 C.ar    1  UNL1        0.2180
      7 N          63.6800   81.7509   14.1084 N.ar    1  UNL1       -0.2181
      8 N          64.9850   83.7951   15.0400 N.pl3   1  UNL1       -0.2977
      9 H          65.2278   83.2891   15.8489 H       1  UNL1        0.1500
     10 C          65.3067   85.2571   14.9454 C.3     1  UNL1        0.1395
     11 C          64.3994   86.2675   15.5828 C.ar    1  UNL1        0.1206
     12 C          64.2824   87.7130   15.1997 C.ar    1  UNL1        0.1149
     13 N          63.2606   88.3486   16.0953 N.ar    1  UNL1       -0.2305
     14 N          62.7463   87.2958   17.0319 N.ar    1  UNL1       -0.0641
     15 N          63.4501   86.0097   16.7152 N.ar    1  UNL1       -0.1314
     16 C          62.8290   89.7847   16.0605 C.3     1  UNL1        0.1307
     17 C          63.8082   90.8705   16.3958 C.3     1  UNL1        0.0435
     18 C          64.7145   91.4176   15.3331 C.3     1  UNL1        0.0706
     19 N          65.4315   92.7163   15.5547 N.3     1  UNL1       -0.2974
     20 H          64.9499   93.1922   16.3175 H       1  UNL1        0.1232
     21 C          66.8920   92.7177   15.8969 C.3     1  UNL1        0.0700
     22 C          67.8450   91.8579   15.1207 C.3     1  UNL1        0.0341
     23 C          68.1399   92.1731   13.6842 C.3     1  UNL1        0.0700
     24 N          67.0188   92.4991   12.7424 N.3     1  UNL1       -0.2985
     25 H          66.4902   93.2614   13.1665 H       1  UNL1        0.1232
     26 C          67.3200   92.9129   11.3325 C.3     1  UNL1        0.0540
     27 C          66.7306   94.1766   10.7796 C.3     1  UNL1        0.0157
     28 C          67.0318   94.5904    9.3696 C.3     1  UNL1        0.0014
     29 C          67.9224   93.7405    8.5126 C.3     1  UNL1        0.0001
     30 C          68.5119   92.4768    9.0654 C.3     1  UNL1        0.0014
     31 C          68.2106   92.0630   10.4755 C.3     1  UNL1        0.0157
     32 N          63.4459   83.7374   10.0774 N.pl3   1  UNL1       -0.3195
     33 H          63.9395   83.3606    9.3135 H       1  UNL1        0.1481
     34 C          62.6156   84.9736    9.8976 C.3     1  UNL1        0.0738
     35 C          61.9325   85.5967   11.0789 C.3     1  UNL1        0.0411
     36 C          61.1023   86.8329   10.8991 C.3     1  UNL1        0.0951
     37 N          60.9550   87.4461    9.5380 N.am    1  UNL1       -0.2794
     38 C          60.1247   88.6824    9.3583 C.2     1  UNL1        0.2270
     39 O          59.9775   89.2956    7.9973 O.2     1  UNL1       -0.2748
     40 C          61.6380   86.8231    8.3569 C.3     1  UNL1        0.0951
     41 C          62.4683   85.5868    8.5366 C.3     1  UNL1        0.0411
     42 C          59.4417   89.3054   10.5395 C.3     1  UNL1        0.1023
     43 C          60.1380   90.3718   11.3321 C.3     1  UNL1        0.0785
     44 N          61.0176   89.9941   12.4869 N.3     1  UNL1       -0.2924
     45 H          60.6935   89.0859   12.8192 H       1  UNL1        0.1236
     46 C          62.5009   89.8806   12.2941 C.3     1  UNL1        0.1110
     47 C          63.2160   90.8434   11.3932 C.2     1  UNL1        0.0663
     48 O          62.8568   90.9176    9.9387 O.co2   1  UNL1       -0.5477
     49 O          64.2902   91.7320   11.9467 O.co2   1  UNL1       -0.5477
@<TRIPOS>UNITY_ATOM_ATTR
48 1
charge -1
@<TRIPOS>BOND
     1     1     2    1
     2     2     3   ar
     3     3     4   ar
     4     4    32    1
     5    32    34    1
     6    34    35    1
     7    35    36    1
     8    36    37    1
     9    37    38   am
    10    38    39    2
    11    38    42    1
    12    42    43    1
    13    43    44    1
    14    44    46    1
    15    46    47    1
    16    47    48   ar
    17    47    49   ar
    18    37    40    1
    19    40    41    1
    20     4     5   ar
    21     5     6   ar
    22     6     8    1
    23     8    10    1
    24    10    11    1
    25    11    12   ar
    26    12    13   ar
    27    13    16    1
    28    16    17    1
    29    17    18    1
    30    18    19    1
    31    19    21    1
    32    21    22    1
    33    22    23    1
    34    23    24    1
    35    24    26    1
    36    26    27    1
    37    27    28    1
    38    28    29    1
    39    29    30    1
    40    30    31    1
    41    13    14   ar
    42    14    15   ar
    43     6     7   ar
    44     7     2   ar
    45    41    34    1
    46    15    11   ar
    47    31    26    1
    48    32    33    1
    49    44    45    1
    50     8     9    1
    51    19    20    1
    52    24    25    1
@<TRIPOS>MOLECULE
*****
 49 52 0 0 0
SMALL
GASTEIGER

@<TRIPOS>ATOM
      1 C          62.3435   80.3599   13.6100 C.3     1  UNL1        0.0523
      2 C          62.5644   81.8413   13.5286 C.ar    1  UNL1        0.0650
      3 C          62.8474   82.6270   14.7745 C.ar    1  UNL1        0.0489
      4 C          63.0683   84.1084   14.6931 C.ar    1  UNL1        0.1325
      5 N          63.0062   84.8041   13.3657 N.ar    1  UNL1       -0.1991
      6 C          62.7232   84.0185   12.1197 C.ar    1  UNL1        0.2180
      7 N          62.5023   82.5371   12.2011 N.ar    1  UNL1       -0.2181
      8 N          62.6611   84.7142   10.7922 N.pl3   1  UNL1       -0.2977
      9 H          62.9170   84.2335    9.9721 H       1  UNL1        0.1500
     10 C          62.2090   86.1423   10.7143 C.3     1  UNL1        0.1395
     11 C          61.3481   86.5953    9.5725 C.ar    1  UNL1        0.1206
     12 C          60.6634   87.9250    9.4582 C.ar    1  UNL1        0.1149
     13 N          59.9128   87.9496    8.1596 N.ar    1  UNL1       -0.2305
     14 N          60.1336   86.6351    7.4716 N.ar    1  UNL1       -0.0641
     15 N          61.0207   85.7981    8.3448 N.ar    1  UNL1       -0.1314
     16 C          59.0865   89.0887    7.6404 C.3     1  UNL1        0.1307
     17 C          59.3469   89.6407    6.2701 C.3     1  UNL1        0.0435
     18 C          58.4197   90.6645    5.6852 C.3     1  UNL1        0.0706
     19 N          58.9591   91.9821    5.2134 N.3     1  UNL1       -0.2974
     20 H          59.9017   92.0676    5.5935 H       1  UNL1        0.1232
     21 C          59.0569   92.2698    3.7445 C.3     1  UNL1        0.0700
     22 C          60.2493   92.9998    3.2009 C.3     1  UNL1        0.0341
     23 C          60.2800   93.4185    1.7609 C.3     1  UNL1        0.0700
     24 N          61.2640   92.7913    0.8183 N.3     1  UNL1       -0.2985
     25 H          60.7911   92.6960   -0.0804 H       1  UNL1        0.1232
     26 C          62.5769   93.4642    0.5476 C.3     1  UNL1        0.0540
     27 C          63.5359   93.7176    1.6728 C.3     1  UNL1        0.0157
     28 C          64.8489   94.3904    1.4021 C.3     1  UNL1        0.0014
     29 C          65.2029   94.8100    0.0062 C.3     1  UNL1        0.0001
     30 C          64.2439   94.5566   -1.1191 C.3     1  UNL1        0.0014
     31 C          62.9309   93.8837   -0.8484 C.3     1  UNL1        0.0157
     32 N          63.3514   84.8941   15.9392 N.pl3   1  UNL1       -0.3195
     33 H          63.4288   84.4324   16.8053 H       1  UNL1        0.1481
     34 C          63.5165   86.3832   15.8657 C.3     1  UNL1        0.0738
     35 C          64.2717   86.9986   14.7250 C.3     1  UNL1        0.0411
     36 C          64.4368   88.4877   14.6514 C.3     1  UNL1        0.0951
     37 N          63.8467   89.3613   15.7185 N.am    1  UNL1       -0.2794
     38 C          64.0118   90.8504   15.6449 C.2     1  UNL1        0.2270
     39 O          63.4218   91.7240   16.7120 O.2     1  UNL1       -0.2748
     40 C          63.0916   88.7459   16.8591 C.3     1  UNL1        0.0951
     41 C          62.9265   87.2568   16.9327 C.3     1  UNL1        0.0411
     42 C          64.7670   91.4658   14.5043 C.3     1  UNL1        0.1023
     43 C          66.0169   92.2516   14.7694 C.3     1  UNL1        0.0785
     44 N          66.1074   93.6851   14.3372 N.3     1  UNL1       -0.2924
     45 H          66.8387   94.1173   14.9019 H       1  UNL1        0.1236
     46 C          66.4105   94.0195   12.9067 C.3     1  UNL1        0.1110
     47 C          66.5539   92.9221   11.8942 C.2     1  UNL1        0.0663
     48 O          65.3432   92.3956   11.1822 O.co2   1  UNL1       -0.5477
     49 O          67.9081   92.3513   11.5936 O.co2   1  UNL1       -0.5477
@<TRIPOS>UNITY_ATOM_ATTR
48 1
charge -1
@<TRIPOS>BOND
     1     1     2    1
     2     2     3   ar
     3     3     4   ar
     4     4    32    1
     5    32    34    1
     6    34    35    1
     7    35    36    1
     8    36    37    1
     9    37    38   am
    10    38    39    2
    11    38    42    1
    12    42    43    1
    13    43    44    1
    14    44    46    1
    15    46    47    1
    16    47    48   ar
    17    47    49   ar
    18    37    40    1
    19    40    41    1
    20     4     5   ar
    21     5     6   ar
    22     6     8    1
    23     8    10    1
    24    10    11    1
    25    11    12   ar
    26    12    13   ar
    27    13    16    1
    28    16    17    1
    29    17    18    1
    30    18    19    1
    31    19    21    1
    32    21    22    1
    33    22    23    1
    34    23    24    1
    35    24    26    1
    36    26    27    1
    37    27    28    1
    38    28    29    1
    39    29    30    1
    40    30    31    1
    41    13    14   ar
    42    14    15   ar
    43     6     7   ar
    44     7     2   ar
    45    41    34    1
    46    15    11   ar
    47    31    26    1
    48    32    33    1
    49    44    45    1
    50     8     9    1
    51    19    20    1
    52    24    25    1
@<TRIPOS>MOLECULE
*****
 49 52 0 0 0
SMALL
GASTEIGER

@<TRIPOS>ATOM
      1 C          58.6215   88.0759    7.1620 C.3     1  UNL1        0.0523
      2 C          59.7180   87.6282    8.0824 C.ar    1  UNL1        0.0650
      3 C          60.0094   88.4019    9.3339 C.ar    1  UNL1        0.0489
      4 C          61.1060   87.9542   10.2543 C.ar    1  UNL1        0.1325
      5 N          61.9111   86.7327    9.9232 N.ar    1  UNL1       -0.1991
      6 C          61.6197   85.9589    8.6717 C.ar    1  UNL1        0.2180
      7 N          60.5231   86.4067    7.7513 N.ar    1  UNL1       -0.2181
      8 N          62.4248   84.7374    8.3405 N.pl3   1  UNL1       -0.2977
      9 H          62.1003   84.1033    7.6609 H       1  UNL1        0.1500
     10 C          63.7243   84.4819    9.0448 C.3     1  UNL1        0.1395
     11 C          63.8322   83.3619   10.0369 C.ar    1  UNL1        0.1206
     12 C          62.7278   82.4289   10.4366 C.ar    1  UNL1        0.1149
     13 N          63.2764   81.4686   11.4501 N.ar    1  UNL1       -0.2305
     14 N          64.7198   81.8084   11.6767 N.ar    1  UNL1       -0.0641
     15 N          65.0632   82.9785   10.8033 N.ar    1  UNL1       -0.1314
     16 C          62.5153   80.3629   12.1195 C.3     1  UNL1        0.1307
     17 C          62.2817   80.4029   13.6007 C.3     1  UNL1        0.0435
     18 C          63.2444   81.1296   14.4924 C.3     1  UNL1        0.0706
     19 N          62.8428   82.4258   15.1313 N.3     1  UNL1       -0.2974
     20 H          63.7017   82.8785   15.4440 H       1  UNL1        0.1232
     21 C          62.0784   83.4462   14.3412 C.3     1  UNL1        0.0700
     22 C          62.8109   84.4213   13.4679 C.3     1  UNL1        0.0341
     23 C          64.3018   84.5489   13.5727 C.3     1  UNL1        0.0700
     24 N          64.9222   85.0851   14.8288 N.3     1  UNL1       -0.2985
     25 H          65.8501   85.4256   14.5767 H       1  UNL1        0.1232
     26 C          64.2469   86.1895   15.5865 C.3     1  UNL1        0.0540
     27 C          64.3566   87.6058   15.1048 C.3     1  UNL1        0.0157
     28 C          63.6813   88.7102   15.8625 C.3     1  UNL1        0.0014
     29 C          62.8963   88.3983   17.1021 C.3     1  UNL1        0.0001
     30 C          62.7865   86.9820   17.5839 C.3     1  UNL1        0.0014
     31 C          63.4619   85.8776   16.8261 C.3     1  UNL1        0.0157
     32 N          61.3974   88.7280   11.5059 N.pl3   1  UNL1       -0.3195
     33 H          60.8860   88.5463   12.3273 H       1  UNL1        0.1481
     34 C          62.4679   89.7787   11.5058 C.3     1  UNL1        0.0738
     35 C          63.3793   89.9209   12.6887 C.3     1  UNL1        0.0411
     36 C          64.4498   90.9716   12.6887 C.3     1  UNL1        0.0951
     37 N          64.6089   91.8802   11.5058 N.am    1  UNL1       -0.2794
     38 C          65.6794   92.9309   11.5058 C.2     1  UNL1        0.2270
     39 O          65.8386   93.8394   10.3229 O.2     1  UNL1       -0.2748
     40 C          63.6975   91.7380   10.3230 C.3     1  UNL1        0.0951
     41 C          62.6270   90.6873   10.3230 C.3     1  UNL1        0.0411
     42 C          66.5908   93.0730   12.6887 C.3     1  UNL1        0.1023
     43 C          67.9234   92.3843   12.6958 C.3     1  UNL1        0.0785
     44 N          68.4760   91.8333   13.9768 N.3     1  UNL1       -0.2924
     45 H          69.2241   92.4619   14.2692 H       1  UNL1        0.1236
     46 C          67.5771   91.6485   15.1633 C.3     1  UNL1        0.1110
     47 C          67.1959   92.8290   16.0065 C.2     1  UNL1        0.0663
     48 O          68.0843   94.0369   16.0513 O.co2   1  UNL1       -0.5477
     49 O          65.9265   92.8016   16.8051 O.co2   1  UNL1       -0.5477
@<TRIPOS>UNITY_ATOM_ATTR
48 1
charge -1
@<TRIPOS>BOND
     1     1     2    1
     2     2     3   ar
     3     3     4   ar
     4     4    32    1
     5    32    34    1
     6    34    35    1
     7    35    36    1
     8    36    37    1
     9    37    38   am
    10    38    39    2
    11    38    42    1
    12    42    43    1
    13    43    44    1
    14    44    46    1
    15    46    47    1
    16    47    48   ar
    17    47    49   ar
    18    37    40    1
    19    40    41    1
    20     4     5   ar
    21     5     6   ar
    22     6     8    1
    23     8    10    1
    24    10    11    1
    25    11    12   ar
    26    12    13   ar
    27    13    16    1
    28    16    17    1
    29    17    18    1
    30    18    19    1
    31    19    21    1
    32    21    22    1
    33    22    23    1
    34    23    24    1
    35    24    26    1
    36    26    27    1
    37    27    28    1
    38    28    29    1
    39    29    30    1
    40    30    31    1
    41    13    14   ar
    42    14    15   ar
    43     6     7   ar
    44     7     2   ar
    45    41    34    1
    46    15    11   ar
    47    31    26    1
    48    32    33    1
    49    44    45    1
    50     8     9    1
    51    19    20    1
    52    24    25    1
@<TRIPOS>MOLECULE
*****
 49 52 0 0 0
SMALL
GASTEIGER

@<TRIPOS>ATOM
      1 C          62.2722   80.4270   13.4953 C.3     1  UNL1        0.0523
      2 C          62.5227   81.9041   13.4225 C.ar    1  UNL1        0.0650
      3 C          62.7953   82.6812   14.6762 C.ar    1  UNL1        0.0489
      4 C          63.0459   84.1584   14.6035 C.ar    1  UNL1        0.1325
      5 N          63.0238   84.8584   13.2770 N.ar    1  UNL1       -0.1991
      6 C          62.7512   84.0813   12.0234 C.ar    1  UNL1        0.2180
      7 N          62.5007   82.6041   12.0961 N.ar    1  UNL1       -0.2181
      8 N          62.7291   84.7813   10.6969 N.pl3   1  UNL1       -0.2977
      9 H          63.0493   84.3171    9.8899 H       1  UNL1        0.1500
     10 C          62.2193   86.1886   10.5999 C.3     1  UNL1        0.1395
     11 C          61.2790   86.5713    9.4956 C.ar    1  UNL1        0.1206
     12 C          60.6825   87.9301    9.2769 C.ar    1  UNL1        0.1149
     13 N          59.8049   87.8610    8.0622 N.ar    1  UNL1       -0.2305
     14 N          59.8591   86.4594    7.5304 N.ar    1  UNL1       -0.0641
     15 N          60.7701   85.6624    8.4163 N.ar    1  UNL1       -0.1314
     16 C          59.0124   88.9944    7.4815 C.3     1  UNL1        0.1307
     17 C          59.5368   89.7449    6.2933 C.3     1  UNL1        0.0435
     18 C          58.6624   90.7393    5.5886 C.3     1  UNL1        0.0706
     19 N          59.2497   92.0165    5.0656 N.3     1  UNL1       -0.2974
     20 H          60.2488   91.9863    5.2693 H       1  UNL1        0.1232
     21 C          59.1143   92.3647    3.6129 C.3     1  UNL1        0.0700
     22 C          60.1585   93.2082    2.9434 C.3     1  UNL1        0.0341
     23 C          60.2731   93.2130    1.4478 C.3     1  UNL1        0.0700
     24 N          59.2168   92.5520    0.6126 N.3     1  UNL1       -0.2985
     25 H          58.6174   92.0319    1.2534 H       1  UNL1        0.1232
     26 C          58.3123   93.3831   -0.2483 C.3     1  UNL1        0.0540
     27 C          57.1547   92.7437   -0.9561 C.3     1  UNL1        0.0157
     28 C          56.2502   93.5748   -1.8170 C.3     1  UNL1        0.0014
     29 C          56.5033   95.0454   -1.9700 C.3     1  UNL1        0.0001
     30 C          57.6610   95.6849   -1.2622 C.3     1  UNL1        0.0014
     31 C          58.5655   94.8537   -0.4013 C.3     1  UNL1        0.0157
     32 N          63.3185   84.9355   15.8572 N.pl3   1  UNL1       -0.3195
     33 H          63.3741   84.4697   16.7228 H       1  UNL1        0.1481
     34 C          63.5063   86.4222   15.7922 C.3     1  UNL1        0.0738
     35 C          64.2615   87.0335   14.6492 C.3     1  UNL1        0.0411
     36 C          64.4493   88.5202   14.5842 C.3     1  UNL1        0.0951
     37 N          63.8820   89.3958   15.6620 N.am    1  UNL1       -0.2794
     38 C          64.0699   90.8825   15.5969 C.2     1  UNL1        0.2270
     39 O          63.5026   91.7581   16.6747 O.2     1  UNL1       -0.2748
     40 C          63.1269   88.7845   16.8048 C.3     1  UNL1        0.0951
     41 C          62.9391   87.2977   16.8699 C.3     1  UNL1        0.0411
     42 C          64.8250   91.4938   14.4540 C.3     1  UNL1        0.1023
     43 C          66.1550   92.1438   14.6961 C.3     1  UNL1        0.0785
     44 N          66.8309   92.9026   13.5927 N.3     1  UNL1       -0.2924
     45 H          67.8213   92.9503   13.8319 H       1  UNL1        0.1236
     46 C          66.7501   92.4036   12.1805 C.3     1  UNL1        0.1110
     47 C          66.6225   93.3777   11.0470 C.2     1  UNL1        0.0663
     48 O          65.7584   94.5946   11.1975 O.co2   1  UNL1       -0.5477
     49 O          67.3590   93.1350    9.7630 O.co2   1  UNL1       -0.5477
@<TRIPOS>UNITY_ATOM_ATTR
48 1
charge -1
@<TRIPOS>BOND
     1     1     2    1
     2     2     3   ar
     3     3     4   ar
     4     4    32    1
     5    32    34    1
     6    34    35    1
     7    35    36    1
     8    36    37    1
     9    37    38   am
    10    38    39    2
    11    38    42    1
    12    42    43    1
    13    43    44    1
    14    44    46    1
    15    46    47    1
    16    47    48   ar
    17    47    49   ar
    18    37    40    1
    19    40    41    1
    20     4     5   ar
    21     5     6   ar
    22     6     8    1
    23     8    10    1
    24    10    11    1
    25    11    12   ar
    26    12    13   ar
    27    13    16    1
    28    16    17    1
    29    17    18    1
    30    18    19    1
    31    19    21    1
    32    21    22    1
    33    22    23    1
    34    23    24    1
    35    24    26    1
    36    26    27    1
    37    27    28    1
    38    28    29    1
    39    29    30    1
    40    30    31    1
    41    13    14   ar
    42    14    15   ar
    43     6     7   ar
    44     7     2   ar
    45    41    34    1
    46    15    11   ar
    47    31    26    1
    48    32    33    1
    49    44    45    1
    50     8     9    1
    51    19    20    1
    52    24    25    1
@<TRIPOS>MOLECULE
*****
 49 52 0 0 0
SMALL
GASTEIGER

@<TRIPOS>ATOM
      1 C          62.0451   80.0048   13.4891 C.3     1  UNL1        0.0523
      2 C          62.6873   81.3538   13.3554 C.ar    1  UNL1        0.0650
      3 C          62.8710   82.2203   14.5659 C.ar    1  UNL1        0.0489
      4 C          63.5131   83.5693   14.4323 C.ar    1  UNL1        0.1325
      5 N          63.9716   84.0518   13.0881 N.ar    1  UNL1       -0.1991
      6 C          63.7880   83.1853   11.8775 C.ar    1  UNL1        0.2180
      7 N          63.1458   81.8363   12.0112 N.ar    1  UNL1       -0.2181
      8 N          64.2465   83.6678   10.5333 N.pl3   1  UNL1       -0.2977
      9 H          65.1893   83.5655   10.2688 H       1  UNL1        0.1500
     10 C          63.2685   84.3061    9.5919 C.3     1  UNL1        0.1395
     11 C          62.4838   85.5082   10.0271 C.ar    1  UNL1        0.1206
     12 C          62.4293   86.8293    9.3187 C.ar    1  UNL1        0.1149
     13 N          61.5277   87.7378   10.1009 N.ar    1  UNL1       -0.2305
     14 N          61.0249   86.9781   11.2927 N.ar    1  UNL1       -0.0641
     15 N          61.6159   85.6002   11.2470 N.ar    1  UNL1       -0.1314
     16 C          61.1883   89.1567    9.7525 C.3     1  UNL1        0.1307
     17 C          60.0469   89.4486    8.8241 C.3     1  UNL1        0.0435
     18 C          59.6261   88.4278    7.8088 C.3     1  UNL1        0.0706
     19 N          58.8995   88.8583    6.5692 N.3     1  UNL1       -0.2974
     20 H          57.9356   89.0479    6.8437 H       1  UNL1        0.1232
     21 C          59.3738   90.0549    5.7991 C.3     1  UNL1        0.0700
     22 C          58.4227   91.1727    5.4892 C.3     1  UNL1        0.0341
     23 C          58.9145   92.4024    4.7851 C.3     1  UNL1        0.0700
     24 N          59.1898   92.3631    3.3111 N.3     1  UNL1       -0.2985
     25 H          58.5004   92.9694    2.8666 H       1  UNL1        0.1232
     26 C          60.5329   92.7780    2.7877 C.3     1  UNL1        0.0540
     27 C          61.7612   92.0141    3.1848 C.3     1  UNL1        0.0157
     28 C          63.1043   92.4290    2.6614 C.3     1  UNL1        0.0014
     29 C          63.2190   93.6077    1.7408 C.3     1  UNL1        0.0001
     30 C          61.9907   94.3716    1.3436 C.3     1  UNL1        0.0014
     31 C          60.6476   93.9567    1.8671 C.3     1  UNL1        0.0157
     32 N          63.6968   84.4358   15.6429 N.pl3   1  UNL1       -0.3195
     33 H          63.7677   84.0261   16.5353 H       1  UNL1        0.1481
     34 C          63.7723   85.9264   15.4938 C.3     1  UNL1        0.0738
     35 C          63.3505   86.8157   16.6258 C.3     1  UNL1        0.0411
     36 C          63.4260   88.3064   16.4767 C.3     1  UNL1        0.0951
     37 N          63.9233   88.9077   15.1956 N.am    1  UNL1       -0.2794
     38 C          63.9988   90.3984   15.0465 C.2     1  UNL1        0.2270
     39 O          64.4961   90.9998   13.7655 O.2     1  UNL1       -0.2748
     40 C          64.3450   88.0185   14.0637 C.3     1  UNL1        0.0951
     41 C          64.2695   86.5278   14.2128 C.3     1  UNL1        0.0411
     42 C          63.5771   91.2877   16.1785 C.3     1  UNL1        0.1023
     43 C          64.5972   92.1164   16.9014 C.3     1  UNL1        0.0785
     44 N          65.6573   92.8433   16.1283 N.3     1  UNL1       -0.2924
     45 H          65.7026   93.7888   16.5082 H       1  UNL1        0.1236
     46 C          67.0622   92.3180   16.1057 C.3     1  UNL1        0.1110
     47 C          68.1710   93.1655   15.5560 C.2     1  UNL1        0.0663
     48 O          68.5306   94.4579   16.2273 O.co2   1  UNL1       -0.5477
     49 O          68.9203   92.7206   14.3351 O.co2   1  UNL1       -0.5477
@<TRIPOS>UNITY_ATOM_ATTR
48 1
charge -1
@<TRIPOS>BOND
     1     1     2    1
     2     2     3   ar
     3     3     4   ar
     4     4    32    1
     5    32    34    1
     6    34    35    1
     7    35    36    1
     8    36    37    1
     9    37    38   am
    10    38    39    2
    11    38    42    1
    12    42    43    1
    13    43    44    1
    14    44    46    1
    15    46    47    1
    16    47    48   ar
    17    47    49   ar
    18    37    40    1
    19    40    41    1
    20     4     5   ar
    21     5     6   ar
    22     6     8    1
    23     8    10    1
    24    10    11    1
    25    11    12   ar
    26    12    13   ar
    27    13    16    1
    28    16    17    1
    29    17    18    1
    30    18    19    1
    31    19    21    1
    32    21    22    1
    33    22    23    1
    34    23    24    1
    35    24    26    1
    36    26    27    1
    37    27    28    1
    38    28    29    1
    39    29    30    1
    40    30    31    1
    41    13    14   ar
    42    14    15   ar
    43     6     7   ar
    44     7     2   ar
    45    41    34    1
    46    15    11   ar
    47    31    26    1
    48    32    33    1
    49    44    45    1
    50     8     9    1
    51    19    20    1
    52    24    25    1
@<TRIPOS>MOLECULE
*****
 49 52 0 0 0
SMALL
GASTEIGER

@<TRIPOS>ATOM
      1 C          58.6248   89.7186   12.6776 C.3     1  UNL1        0.0523
      2 C          59.8632   89.3953   11.8953 C.ar    1  UNL1        0.0650
      3 C          61.2131   89.7359   12.4535 C.ar    1  UNL1        0.0489
      4 C          62.4515   89.4126   11.6712 C.ar    1  UNL1        0.1325
      5 N          62.3399   88.7487   10.3308 N.ar    1  UNL1       -0.1991
      6 C          60.9900   88.4081    9.7727 C.ar    1  UNL1        0.2180
      7 N          59.7516   88.7314   10.5549 N.ar    1  UNL1       -0.2181
      8 N          60.8783   87.7441    8.4322 N.pl3   1  UNL1       -0.2977
      9 H          60.6622   88.2790    7.6344 H       1  UNL1        0.1500
     10 C          61.0960   86.2653    8.3072 C.3     1  UNL1        0.1395
     11 C          61.8244   85.5206    9.3866 C.ar    1  UNL1        0.1206
     12 C          63.0362   84.6569    9.1982 C.ar    1  UNL1        0.1149
     13 N          63.4296   84.1113   10.5390 N.ar    1  UNL1       -0.2305
     14 N          62.4608   84.6378   11.5560 N.ar    1  UNL1       -0.0641
     15 N          61.4688   85.5088   10.8438 N.ar    1  UNL1       -0.1314
     16 C          64.5882   83.1993   10.8144 C.3     1  UNL1        0.1307
     17 C          64.4747   82.1405   11.8709 C.3     1  UNL1        0.0435
     18 C          63.2308   81.3080   11.9677 C.3     1  UNL1        0.0706
     19 N          62.0492   81.8122   12.7419 N.3     1  UNL1       -0.2974
     20 H          61.2648   81.2017   12.5128 H       1  UNL1        0.1232
     21 C          62.1123   81.8931   14.2384 C.3     1  UNL1        0.0700
     22 C          62.4277   83.1987   14.9062 C.3     1  UNL1        0.0341
     23 C          63.8297   83.4948   15.3498 C.3     1  UNL1        0.0700
     24 N          64.4981   84.7681   14.9233 N.3     1  UNL1       -0.2985
     25 H          64.3763   84.8406   13.9132 H       1  UNL1        0.1232
     26 C          64.0589   86.0779   15.5076 C.3     1  UNL1        0.0540
     27 C          64.3855   87.3609   14.8025 C.3     1  UNL1        0.0157
     28 C          63.9463   88.6707   15.3868 C.3     1  UNL1        0.0014
     29 C          63.1803   88.6975   16.6762 C.3     1  UNL1        0.0001
     30 C          62.8536   87.4146   17.3814 C.3     1  UNL1        0.0014
     31 C          63.2929   86.1047   16.7970 C.3     1  UNL1        0.0157
     32 N          63.8015   89.7532   12.2295 N.pl3   1  UNL1       -0.3195
     33 H          64.3124   89.0764   12.7297 H       1  UNL1        0.1481
     34 C          64.3730   91.1250   12.0255 C.3     1  UNL1        0.0738
     35 C          64.2069   91.8181   10.7056 C.3     1  UNL1        0.0411
     36 C          64.7785   93.1898   10.5017 C.3     1  UNL1        0.0951
     37 N          65.5160   93.8685   11.6177 N.am    1  UNL1       -0.2794
     38 C          66.0876   95.2403   11.4137 C.2     1  UNL1        0.2270
     39 O          66.8251   95.9190   12.5297 O.2     1  UNL1       -0.2748
     40 C          65.6821   93.1755   12.9375 C.3     1  UNL1        0.0951
     41 C          65.1105   91.8037   13.1414 C.3     1  UNL1        0.0411
     42 C          65.9215   95.9334   10.0938 C.3     1  UNL1        0.1023
     43 C          67.1254   96.4390    9.3555 C.3     1  UNL1        0.0785
     44 N          68.0391   95.4735    8.6606 N.3     1  UNL1       -0.2924
     45 H          68.8869   95.4126    9.2245 H       1  UNL1        0.1236
     46 C          67.5880   94.0663    8.4036 C.3     1  UNL1        0.1110
     47 C          68.3584   92.9148    8.9785 C.2     1  UNL1        0.0663
     48 O          69.0637   91.9545    8.0671 O.co2   1  UNL1       -0.5477
     49 O          68.4237   92.7236   10.4648 O.co2   1  UNL1       -0.5477
@<TRIPOS>UNITY_ATOM_ATTR
48 1
charge -1
@<TRIPOS>BOND
     1     1     2    1
     2     2     3   ar
     3     3     4   ar
     4     4    32    1
     5    32    34    1
     6    34    35    1
     7    35    36    1
     8    36    37    1
     9    37    38   am
    10    38    39    2
    11    38    42    1
    12    42    43    1
    13    43    44    1
    14    44    46    1
    15    46    47    1
    16    47    48   ar
    17    47    49   ar
    18    37    40    1
    19    40    41    1
    20     4     5   ar
    21     5     6   ar
    22     6     8    1
    23     8    10    1
    24    10    11    1
    25    11    12   ar
    26    12    13   ar
    27    13    16    1
    28    16    17    1
    29    17    18    1
    30    18    19    1
    31    19    21    1
    32    21    22    1
    33    22    23    1
    34    23    24    1
    35    24    26    1
    36    26    27    1
    37    27    28    1
    38    28    29    1
    39    29    30    1
    40    30    31    1
    41    13    14   ar
    42    14    15   ar
    43     6     7   ar
    44     7     2   ar
    45    41    34    1
    46    15    11   ar
    47    31    26    1
    48    32    33    1
    49    44    45    1
    50     8     9    1
    51    19    20    1
    52    24    25    1
@<TRIPOS>MOLECULE
*****
 49 52 0 0 0
SMALL
GASTEIGER

@<TRIPOS>ATOM
      1 C          62.7544   78.4701   10.4638 C.3     1  UNL1        0.0523
      2 C          63.0078   79.8406   11.0183 C.ar    1  UNL1        0.0650
      3 C          63.4113   80.9576   10.1021 C.ar    1  UNL1        0.0489
      4 C          63.6647   82.3281   10.6566 C.ar    1  UNL1        0.1325
      5 N          63.5146   82.5816   12.1274 N.ar    1  UNL1       -0.1991
      6 C          63.1110   81.4646   13.0436 C.ar    1  UNL1        0.2180
      7 N          62.8577   80.0941   12.4890 N.ar    1  UNL1       -0.2181
      8 N          62.9609   81.7181   14.5144 N.pl3   1  UNL1       -0.2977
      9 H          63.4167   81.1349   15.1635 H       1  UNL1        0.1500
     10 C          62.1162   82.8601   14.9962 C.3     1  UNL1        0.1395
     11 C          62.7634   84.1459   15.4183 C.ar    1  UNL1        0.1206
     12 C          62.2379   85.1005   16.4491 C.ar    1  UNL1        0.1149
     13 N          63.1994   86.2474   16.5516 N.ar    1  UNL1       -0.2305
     14 N          64.3190   86.0014   15.5840 N.ar    1  UNL1       -0.0641
     15 N          64.0495   84.7026   14.8836 N.ar    1  UNL1       -0.1314
     16 C          63.0649   87.4321   17.4617 C.3     1  UNL1        0.1307
     17 C          62.9735   88.8140   16.8855 C.3     1  UNL1        0.0435
     18 C          63.5701   89.1068   15.5407 C.3     1  UNL1        0.0706
     19 N          63.2007   90.3662   14.8145 N.3     1  UNL1       -0.2974
     20 H          62.6701   90.9394   15.4704 H       1  UNL1        0.1232
     21 C          64.2738   91.2441   14.2421 C.3     1  UNL1        0.0700
     22 C          65.5608   91.4385   14.9876 C.3     1  UNL1        0.0341
     23 C          66.4731   92.5729   14.6259 C.3     1  UNL1        0.0700
     24 N          65.9633   93.7072   13.7870 N.3     1  UNL1       -0.2985
     25 H          66.2695   94.5686   14.2392 H       1  UNL1        0.1232
     26 C          66.3604   93.8105   12.3443 C.3     1  UNL1        0.0540
     27 C          66.8375   92.5934   11.6086 C.3     1  UNL1        0.0157
     28 C          67.2346   92.6968   10.1659 C.3     1  UNL1        0.0014
     29 C          67.1547   94.0172    9.4588 C.3     1  UNL1        0.0001
     30 C          66.6777   95.2344   10.1943 C.3     1  UNL1        0.0014
     31 C          66.2805   95.1310   11.6372 C.3     1  UNL1        0.0157
     32 N          64.0682   83.4451    9.7403 N.pl3   1  UNL1       -0.3195
     33 H          64.9877   83.4873    9.3909 H       1  UNL1        0.1481
     34 C          63.0709   84.4977    9.3565 C.3     1  UNL1        0.0738
     35 C          62.5530   85.4529   10.3907 C.3     1  UNL1        0.0411
     36 C          61.5557   86.5055   10.0069 C.3     1  UNL1        0.0951
     37 N          61.0762   86.6029    8.5889 N.am    1  UNL1       -0.2794
     38 C          60.0788   87.6555    8.2051 C.2     1  UNL1        0.2270
     39 O          59.5993   87.7530    6.7872 O.2     1  UNL1       -0.2748
     40 C          61.5940   85.6477    7.5548 C.3     1  UNL1        0.0951
     41 C          62.5914   84.5951    7.9386 C.3     1  UNL1        0.0411
     42 C          59.5610   88.6107    9.2393 C.3     1  UNL1        0.1023
     43 C          59.8258   90.0808    9.1019 C.3     1  UNL1        0.0785
     44 N          60.6512   90.7936   10.1317 N.3     1  UNL1       -0.2924
     45 H          60.0594   90.9102   10.9542 H       1  UNL1        0.1236
     46 C          61.9403   90.1920   10.6074 C.3     1  UNL1        0.1110
     47 C          61.9867   89.4530   11.9118 C.2     1  UNL1        0.0663
     48 O          60.8804   89.6238   12.9104 O.co2   1  UNL1       -0.5477
     49 O          63.1394   88.5433   12.2179 O.co2   1  UNL1       -0.5477
@<TRIPOS>UNITY_ATOM_ATTR
48 1
charge -1
@<TRIPOS>BOND
     1     1     2    1
     2     2     3   ar
     3     3     4   ar
     4     4    32    1
     5    32    34    1
     6    34    35    1
     7    35    36    1
     8    36    37    1
     9    37    38   am
    10    38    39    2
    11    38    42    1
    12    42    43    1
    13    43    44    1
    14    44    46    1
    15    46    47    1
    16    47    48   ar
    17    47    49   ar
    18    37    40    1
    19    40    41    1
    20     4     5   ar
    21     5     6   ar
    22     6     8    1
    23     8    10    1
    24    10    11    1
    25    11    12   ar
    26    12    13   ar
    27    13    16    1
    28    16    17    1
    29    17    18    1
    30    18    19    1
    31    19    21    1
    32    21    22    1
    33    22    23    1
    34    23    24    1
    35    24    26    1
    36    26    27    1
    37    27    28    1
    38    28    29    1
    39    29    30    1
    40    30    31    1
    41    13    14   ar
    42    14    15   ar
    43     6     7   ar
    44     7     2   ar
    45    41    34    1
    46    15    11   ar
    47    31    26    1
    48    32    33    1
    49    44    45    1
    50     8     9    1
    51    19    20    1
    52    24    25    1
