@<TRIPOS>MOLECULE
*****
 35 37 0 0 0
SMALL
GASTEIGER

@<TRIPOS>ATOM
      1 C          61.9667   86.9580   11.3070 C.ar    1  UNL1        0.2209
      2 N          61.4356   87.7777   10.1686 N.ar    1  UNL1       -0.2088
      3 C          61.8183   89.2225   10.0421 C.ar    1  UNL1        0.1402
      4 C          62.7322   89.8476   11.0541 C.ar    1  UNL1        0.1773
      5 C          63.2633   89.0279   12.1925 C.ar    1  UNL1        0.1402
      6 N          62.8805   87.5831   12.3190 N.ar    1  UNL1       -0.2088
      7 N          61.5840   85.5132   11.4335 N.pl3   1  UNL1       -0.2818
      8 H          60.6340   85.2561   11.4599 H       1  UNL1        0.1551
      9 C          62.9851   83.8402   12.8435 C.ar    1  UNL1        0.0639
     10 C          64.0498   82.7872   12.9296 C.ar    1  UNL1        0.0159
     11 C          64.7780   82.3538   11.6919 C.ar    1  UNL1        0.0010
     12 C          64.4415   82.9736   10.3681 C.ar    1  UNL1       -0.0030
     13 C          63.3769   84.0267   10.2819 C.ar    1  UNL1       -0.0072
     14 C          63.0404   84.6465    8.9580 C.3     1  UNL1        0.0324
     15 C          62.6487   84.4600   11.5197 C.ar    1  UNL1        0.0601
     16 C          63.0169   84.8716   15.2279 C.2     1  UNL1        0.2497
     17 O          64.5051   85.0363   15.1368 O.2     1  UNL1       -0.2698
     18 N          62.2569   84.2736   14.0813 N.am    1  UNL1       -0.2794
     19 H          61.2802   84.1654   14.1410 H       1  UNL1        0.1552
     20 C          62.8596   86.3891   17.3309 C.2     1  UNL1        0.0048
     21 C          62.2887   85.3049   16.4656 C.2     1  UNL1        0.0580
     22 O          63.1149   91.2925   10.9277 O.3     1  UNL1       -0.4673
     23 C          63.6749   92.0262   12.1101 C.3     1  UNL1        0.2368
     24 C          65.1575   92.0664   12.3345 C.ar    1  UNL1        0.0821
     25 C          65.7241   91.6899   13.6713 C.ar    1  UNL1        0.1757
     26 F          64.8082   91.2732   14.7837 F       1  UNL1       -0.2011
     27 C          67.2067   91.7301   13.8958 C.ar    1  UNL1        0.1689
     28 C          68.1226   92.1467   12.7834 C.ar    1  UNL1        0.0784
     29 C          67.5560   92.5233   11.4465 C.ar    1  UNL1        0.1689
     30 C          66.0734   92.4831   11.2221 C.ar    1  UNL1        0.1757
     31 F          65.5067   92.8596    9.8853 F       1  UNL1       -0.2011
     32 O          67.7734   91.3535   15.2326 O.3     1  UNL1       -0.4691
     33 C          68.5666   92.3541   16.0197 C.3     1  UNL1        0.2526
     34 O          68.4719   92.9400   10.3341 O.3     1  UNL1       -0.4691
     35 C          68.5300   92.1356    9.0693 C.3     1  UNL1        0.2526
@<TRIPOS>BOND
     1    20    21    2
     2    21    16    1
     3    16    17    2
     4    16    18   am
     5    18     9    1
     6     9    10   ar
     7    10    11   ar
     8    11    12   ar
     9    12    13   ar
    10    13    14    1
    11    13    15   ar
    12    15     7    1
    13     7     1    1
    14     1     2   ar
    15     2     3   ar
    16     3     4   ar
    17     4    22    1
    18    22    23    1
    19    23    24    1
    20    24    25   ar
    21    25    26    1
    22    25    27   ar
    23    27    32    1
    24    32    33    1
    25    27    28   ar
    26    28    29   ar
    27    29    34    1
    28    34    35    1
    29    29    30   ar
    30    30    31    1
    31     4     5   ar
    32     5     6   ar
    33    15     9   ar
    34     6     1   ar
    35    30    24   ar
    36    18    19    1
    37     7     8    1
@<TRIPOS>MOLECULE
*****
 35 37 0 0 0
SMALL
GASTEIGER

@<TRIPOS>ATOM
      1 C          61.9453   86.8996   11.2733 C.ar    1  UNL1        0.2209
      2 N          61.3910   87.7400   10.1612 N.ar    1  UNL1       -0.2088
      3 C          61.7472   89.1943   10.0709 C.ar    1  UNL1        0.1402
      4 C          62.6577   89.8082   11.0928 C.ar    1  UNL1        0.1773
      5 C          63.2120   88.9679   12.2048 C.ar    1  UNL1        0.1402
      6 N          62.8558   87.5136   12.2950 N.ar    1  UNL1       -0.2088
      7 N          61.5891   85.4454   11.3635 N.pl3   1  UNL1       -0.2818
      8 H          60.6458   85.1663   11.3250 H       1  UNL1        0.1551
      9 C          62.9963   83.8617   12.8675 C.ar    1  UNL1        0.0639
     10 C          64.0774   82.8326   13.0164 C.ar    1  UNL1        0.0159
     11 C          64.8324   82.3581   11.8102 C.ar    1  UNL1        0.0010
     12 C          64.5063   82.9126   10.4552 C.ar    1  UNL1       -0.0030
     13 C          63.4252   83.9416   10.3063 C.ar    1  UNL1       -0.0072
     14 C          63.0991   84.4962    8.9513 C.3     1  UNL1        0.0324
     15 C          62.6703   84.4162   11.5125 C.ar    1  UNL1        0.0601
     16 C          62.9861   84.8379   15.2752 C.2     1  UNL1        0.2497
     17 O          64.4859   84.8650   15.2706 O.2     1  UNL1       -0.2698
     18 N          62.2414   84.3363   14.0736 N.am    1  UNL1       -0.2794
     19 H          61.2570   84.3185   14.0767 H       1  UNL1        0.1552
     20 C          62.8202   86.3707   17.3664 C.2     1  UNL1        0.0048
     21 C          62.2311   85.3125   16.4813 C.2     1  UNL1        0.0580
     22 O          63.0140   91.2625   11.0025 O.3     1  UNL1       -0.4673
     23 C          63.5750   91.9729   12.1987 C.3     1  UNL1        0.2368
     24 C          65.0601   92.0621   12.3897 C.ar    1  UNL1        0.0821
     25 C          65.9334   92.5383   11.2669 C.ar    1  UNL1        0.1757
     26 F          65.3216   92.9252    9.9532 F       1  UNL1       -0.2011
     27 C          67.4185   92.6275   11.4579 C.ar    1  UNL1        0.1689
     28 C          68.0303   92.2406   12.7716 C.ar    1  UNL1        0.0784
     29 C          67.1570   91.7644   13.8945 C.ar    1  UNL1        0.1689
     30 C          65.6719   91.6752   13.7035 C.ar    1  UNL1        0.1757
     31 F          64.7986   91.1991   14.8262 F       1  UNL1       -0.2011
     32 O          68.2918   93.1036   10.3352 O.3     1  UNL1       -0.4691
     33 C          68.5948   92.1927    9.1826 C.3     1  UNL1        0.2526
     34 O          67.7688   91.3775   15.2082 O.3     1  UNL1       -0.4691
     35 C          68.6492   92.3468   15.9400 C.3     1  UNL1        0.2526
@<TRIPOS>BOND
     1    20    21    2
     2    21    16    1
     3    16    17    2
     4    16    18   am
     5    18     9    1
     6     9    10   ar
     7    10    11   ar
     8    11    12   ar
     9    12    13   ar
    10    13    14    1
    11    13    15   ar
    12    15     7    1
    13     7     1    1
    14     1     2   ar
    15     2     3   ar
    16     3     4   ar
    17     4    22    1
    18    22    23    1
    19    23    24    1
    20    24    25   ar
    21    25    26    1
    22    25    27   ar
    23    27    32    1
    24    32    33    1
    25    27    28   ar
    26    28    29   ar
    27    29    34    1
    28    34    35    1
    29    29    30   ar
    30    30    31    1
    31     4     5   ar
    32     5     6   ar
    33    15     9   ar
    34     6     1   ar
    35    30    24   ar
    36    18    19    1
    37     7     8    1
@<TRIPOS>MOLECULE
*****
 35 37 0 0 0
SMALL
GASTEIGER

@<TRIPOS>ATOM
      1 C          64.3385   90.5359   13.2678 C.ar    1  UNL1        0.2209
      2 N          64.6819   89.4710   14.2669 N.ar    1  UNL1       -0.2088
      3 C          64.1877   88.0688   14.0682 C.ar    1  UNL1        0.1402
      4 C          63.3501   87.7314   12.8704 C.ar    1  UNL1        0.1773
      5 C          63.0067   88.7963   11.8714 C.ar    1  UNL1        0.1402
      6 N          63.5009   90.1985   12.0701 N.ar    1  UNL1       -0.2088
      7 N          64.8327   91.9381   13.4665 N.pl3   1  UNL1       -0.2818
      8 H          64.3348   92.6949   13.0810 H       1  UNL1        0.1551
      9 C          67.4113   92.2437   13.5530 C.ar    1  UNL1        0.0639
     10 C          68.6642   92.4930   14.3392 C.ar    1  UNL1        0.0159
     11 C          68.5915   92.6859   15.8249 C.ar    1  UNL1        0.0010
     12 C          67.2659   92.6296   16.5246 C.ar    1  UNL1       -0.0030
     13 C          66.0130   92.3803   15.7384 C.ar    1  UNL1       -0.0072
     14 C          64.6873   92.3239   16.4381 C.3     1  UNL1        0.0324
     15 C          66.0857   92.1874   14.2527 C.ar    1  UNL1        0.0601
     16 C          67.2120   93.2037   11.1471 C.2     1  UNL1        0.2497
     17 O          66.8672   94.5496   11.7126 O.2     1  UNL1       -0.2698
     18 N          67.4840   92.0508   12.0673 N.am    1  UNL1       -0.2794
     19 H          67.7103   91.1675   11.6961 H       1  UNL1        0.1552
     20 C          68.5077   92.4007    9.0432 C.2     1  UNL1        0.0048
     21 C          67.2847   93.0108    9.6613 C.2     1  UNL1        0.0580
     22 O          62.8559   86.3292   12.6717 O.3     1  UNL1       -0.4673
     23 C          63.7138   85.1672   13.0763 C.3     1  UNL1        0.2368
     24 C          63.2342   83.7647   12.8461 C.ar    1  UNL1        0.0821
     25 C          62.3577   83.0954   13.8628 C.ar    1  UNL1        0.1757
     26 F          61.9609   83.8286   15.1098 F       1  UNL1       -0.2011
     27 C          61.8780   81.6929   13.6326 C.ar    1  UNL1        0.1689
     28 C          62.2748   80.9598   12.3856 C.ar    1  UNL1        0.0784
     29 C          63.1513   81.6290   11.3688 C.ar    1  UNL1        0.1689
     30 C          63.6310   83.0315   11.5990 C.ar    1  UNL1        0.1757
     31 F          64.5075   83.7008   10.5823 F       1  UNL1       -0.2011
     32 O          61.0015   81.0237   14.6493 O.3     1  UNL1       -0.4691
     33 C          59.7278   80.3580   14.2197 C.3     1  UNL1        0.2526
     34 O          63.5482   80.8959   10.1219 O.3     1  UNL1       -0.4691
     35 C          62.8794   79.6005    9.7685 C.3     1  UNL1        0.2526
@<TRIPOS>BOND
     1    20    21    2
     2    21    16    1
     3    16    17    2
     4    16    18   am
     5    18     9    1
     6     9    10   ar
     7    10    11   ar
     8    11    12   ar
     9    12    13   ar
    10    13    14    1
    11    13    15   ar
    12    15     7    1
    13     7     1    1
    14     1     2   ar
    15     2     3   ar
    16     3     4   ar
    17     4    22    1
    18    22    23    1
    19    23    24    1
    20    24    25   ar
    21    25    26    1
    22    25    27   ar
    23    27    32    1
    24    32    33    1
    25    27    28   ar
    26    28    29   ar
    27    29    34    1
    28    34    35    1
    29    29    30   ar
    30    30    31    1
    31     4     5   ar
    32     5     6   ar
    33    15     9   ar
    34     6     1   ar
    35    30    24   ar
    36    18    19    1
    37     7     8    1
@<TRIPOS>MOLECULE
*****
 35 37 0 0 0
SMALL
GASTEIGER

@<TRIPOS>ATOM
      1 C          64.4050   90.5498   13.3487 C.ar    1  UNL1        0.2209
      2 N          63.5640   90.2229   12.1503 N.ar    1  UNL1       -0.2088
      3 C          63.0553   88.8261   11.9496 C.ar    1  UNL1        0.1402
      4 C          63.3877   87.7563   12.9472 C.ar    1  UNL1        0.1773
      5 C          64.2286   88.0833   14.1454 C.ar    1  UNL1        0.1402
      6 N          64.7372   89.4800   14.3462 N.ar    1  UNL1       -0.2088
      7 N          64.9136   91.9466   13.5494 N.pl3   1  UNL1       -0.2818
      8 H          64.4294   92.7081   13.1560 H       1  UNL1        0.1551
      9 C          67.4916   92.2492   13.6621 C.ar    1  UNL1        0.0639
     10 C          68.7380   92.4857   14.4624 C.ar    1  UNL1        0.0159
     11 C          68.6530   92.6560   15.9503 C.ar    1  UNL1        0.0010
     12 C          67.3215   92.5898   16.6379 C.ar    1  UNL1       -0.0030
     13 C          66.0751   92.3534   15.8376 C.ar    1  UNL1       -0.0072
     14 C          64.7436   92.2872   16.5252 C.3     1  UNL1        0.0324
     15 C          66.1601   92.1831   14.3497 C.ar    1  UNL1        0.0601
     16 C          67.0853   93.1665   11.2656 C.2     1  UNL1        0.2497
     17 O          66.5090   94.4245   11.8448 O.2     1  UNL1       -0.2698
     18 N          67.5766   92.0789   12.1743 N.am    1  UNL1       -0.2794
     19 H          67.9549   91.2533   11.7941 H       1  UNL1        0.1552
     20 C          68.3828   92.3615    9.1635 C.2     1  UNL1        0.0048
     21 C          67.1704   92.9962    9.7777 C.2     1  UNL1        0.0580
     22 O          62.8790   86.3595   12.7464 O.3     1  UNL1       -0.4673
     23 C          63.7790   85.1886   13.0092 C.3     1  UNL1        0.2368
     24 C          63.2718   83.7919   12.8038 C.ar    1  UNL1        0.0821
     25 C          63.6589   83.0269   11.5730 C.ar    1  UNL1        0.1757
     26 F          64.5530   83.6585   10.5476 F       1  UNL1       -0.2011
     27 C          63.1517   81.6303   11.3676 C.ar    1  UNL1        0.1689
     28 C          62.2576   80.9986   12.3930 C.ar    1  UNL1        0.0784
     29 C          61.8705   81.7637   13.6239 C.ar    1  UNL1        0.1689
     30 C          62.3776   83.1603   13.8293 C.ar    1  UNL1        0.1757
     31 F          61.9906   83.9253   15.0601 F       1  UNL1       -0.2011
     32 O          63.5388   80.8653   10.1368 O.3     1  UNL1       -0.4691
     33 C          62.8378   79.5828    9.7995 C.3     1  UNL1        0.2526
     34 O          60.9763   81.1320   14.6493 O.3     1  UNL1       -0.4691
     35 C          59.8235   80.2767   14.2142 C.3     1  UNL1        0.2526
@<TRIPOS>BOND
     1    20    21    2
     2    21    16    1
     3    16    17    2
     4    16    18   am
     5    18     9    1
     6     9    10   ar
     7    10    11   ar
     8    11    12   ar
     9    12    13   ar
    10    13    14    1
    11    13    15   ar
    12    15     7    1
    13     7     1    1
    14     1     2   ar
    15     2     3   ar
    16     3     4   ar
    17     4    22    1
    18    22    23    1
    19    23    24    1
    20    24    25   ar
    21    25    26    1
    22    25    27   ar
    23    27    32    1
    24    32    33    1
    25    27    28   ar
    26    28    29   ar
    27    29    34    1
    28    34    35    1
    29    29    30   ar
    30    30    31    1
    31     4     5   ar
    32     5     6   ar
    33    15     9   ar
    34     6     1   ar
    35    30    24   ar
    36    18    19    1
    37     7     8    1
@<TRIPOS>MOLECULE
*****
 35 37 0 0 0
SMALL
GASTEIGER

@<TRIPOS>ATOM
      1 C          63.0925   85.9875   12.7772 C.ar    1  UNL1        0.2209
      2 N          63.6976   85.6853   14.1161 N.ar    1  UNL1       -0.2088
      3 C          64.2570   86.7964   14.9543 C.ar    1  UNL1        0.1402
      4 C          64.2112   88.2097   14.4536 C.ar    1  UNL1        0.1773
      5 C          63.6062   88.5118   13.1148 C.ar    1  UNL1        0.1402
      6 N          63.0468   87.4007   12.2766 N.ar    1  UNL1       -0.2088
      7 N          62.5332   84.8764   11.9390 N.pl3   1  UNL1       -0.2818
      8 H          62.2719   84.0257   12.3600 H       1  UNL1        0.1551
      9 C          61.3476   86.0212    9.9305 C.ar    1  UNL1        0.0639
     10 C          61.1864   86.2062    8.4508 C.ar    1  UNL1        0.0159
     11 C          62.0496   85.4315    7.4996 C.ar    1  UNL1        0.0010
     12 C          63.0740   84.4718    8.0282 C.ar    1  UNL1       -0.0030
     13 C          63.2352   84.2868    9.5080 C.ar    1  UNL1       -0.0072
     14 C          64.2596   83.3270   10.0367 C.3     1  UNL1        0.0324
     15 C          62.3720   85.0615   10.4591 C.ar    1  UNL1        0.0601
     16 C          60.4049   88.2900   10.7754 C.2     1  UNL1        0.2497
     17 O          61.1888   89.0095    9.7180 O.2     1  UNL1       -0.2698
     18 N          60.4843   86.7959   10.8817 N.am    1  UNL1       -0.2794
     19 H          59.9699   86.3237   11.5756 H       1  UNL1        0.1552
     20 C          59.3519   90.5404   11.5352 C.2     1  UNL1        0.0048
     21 C          59.5417   89.0647   11.7266 C.2     1  UNL1        0.0580
     22 O          64.7706   89.3207   15.2919 O.3     1  UNL1       -0.4673
     23 C          64.2436   90.7165   15.1357 C.3     1  UNL1        0.2368
     24 C          65.0813   91.7637   14.4637 C.ar    1  UNL1        0.0821
     25 C          64.8763   92.0689   13.0095 C.ar    1  UNL1        0.1757
     26 F          63.8335   91.3269   12.2273 F       1  UNL1       -0.2011
     27 C          65.7141   93.1161   12.3376 C.ar    1  UNL1        0.1689
     28 C          66.7569   93.8580   13.1198 C.ar    1  UNL1        0.0784
     29 C          66.9620   93.5528   14.5741 C.ar    1  UNL1        0.1689
     30 C          66.1242   92.5056   15.2461 C.ar    1  UNL1        0.1757
     31 F          66.3292   92.2004   16.7003 F       1  UNL1       -0.2011
     32 O          65.5090   93.4213   10.8834 O.3     1  UNL1       -0.4691
     33 C          66.6867   93.4813    9.9563 C.3     1  UNL1        0.2526
     34 O          68.0048   94.2948   15.3564 O.3     1  UNL1       -0.4691
     35 C          69.2416   93.5840   15.8200 C.3     1  UNL1        0.2526
@<TRIPOS>BOND
     1    20    21    2
     2    21    16    1
     3    16    17    2
     4    16    18   am
     5    18     9    1
     6     9    10   ar
     7    10    11   ar
     8    11    12   ar
     9    12    13   ar
    10    13    14    1
    11    13    15   ar
    12    15     7    1
    13     7     1    1
    14     1     2   ar
    15     2     3   ar
    16     3     4   ar
    17     4    22    1
    18    22    23    1
    19    23    24    1
    20    24    25   ar
    21    25    26    1
    22    25    27   ar
    23    27    32    1
    24    32    33    1
    25    27    28   ar
    26    28    29   ar
    27    29    34    1
    28    34    35    1
    29    29    30   ar
    30    30    31    1
    31     4     5   ar
    32     5     6   ar
    33    15     9   ar
    34     6     1   ar
    35    30    24   ar
    36    18    19    1
    37     7     8    1
@<TRIPOS>MOLECULE
*****
 35 37 0 0 0
SMALL
GASTEIGER

@<TRIPOS>ATOM
      1 C          63.0998   85.9726   12.7768 C.ar    1  UNL1        0.2209
      2 N          63.7066   85.6704   14.1149 N.ar    1  UNL1       -0.2088
      3 C          64.2627   86.7821   14.9545 C.ar    1  UNL1        0.1402
      4 C          64.2120   88.1960   14.4559 C.ar    1  UNL1        0.1773
      5 C          63.6052   88.4981   13.1178 C.ar    1  UNL1        0.1402
      6 N          63.0491   87.3864   12.2783 N.ar    1  UNL1       -0.2088
      7 N          62.5437   84.8609   11.9373 N.pl3   1  UNL1       -0.2818
      8 H          62.2902   84.0069   12.3565 H       1  UNL1        0.1551
      9 C          61.3490   86.0144    9.9392 C.ar    1  UNL1        0.0639
     10 C          61.1792   86.2038    8.4610 C.ar    1  UNL1        0.0159
     11 C          62.0342   85.4290    7.5024 C.ar    1  UNL1        0.0010
     12 C          63.0590   84.4649    8.0222 C.ar    1  UNL1       -0.0030
     13 C          63.2288   84.2756    9.5004 C.ar    1  UNL1       -0.0072
     14 C          64.2537   83.3114   10.0202 C.3     1  UNL1        0.0324
     15 C          62.3738   85.0503   10.4589 C.ar    1  UNL1        0.0601
     16 C          60.3527   88.2746   10.7447 C.2     1  UNL1        0.2497
     17 O          61.0664   88.9854    9.6332 O.2     1  UNL1       -0.2698
     18 N          60.4940   86.7891   10.8977 N.am    1  UNL1       -0.2794
     19 H          60.0255   86.3226   11.6272 H       1  UNL1        0.1552
     20 C          59.3866   90.5396   11.5733 C.2     1  UNL1        0.0048
     21 C          59.4976   89.0493   11.7032 C.2     1  UNL1        0.0580
     22 O          64.7681   89.3077   15.2955 O.3     1  UNL1       -0.4673
     23 C          64.2392   90.7026   15.1387 C.3     1  UNL1        0.2368
     24 C          65.0662   91.7448   14.4460 C.ar    1  UNL1        0.0821
     25 C          66.1072   92.5069   15.2113 C.ar    1  UNL1        0.1757
     26 F          66.3211   92.2267   16.6692 F       1  UNL1       -0.2011
     27 C          66.9342   93.5491   14.5186 C.ar    1  UNL1        0.1689
     28 C          66.7203   93.8292   13.0606 C.ar    1  UNL1        0.0784
     29 C          65.6793   93.0672   12.2953 C.ar    1  UNL1        0.1689
     30 C          64.8523   92.0250   12.9879 C.ar    1  UNL1        0.1757
     31 F          63.8113   91.2630   12.2226 F       1  UNL1       -0.2011
     32 O          67.9752   94.3111   15.2839 O.3     1  UNL1       -0.4691
     33 C          69.1817   93.5998   15.8210 C.3     1  UNL1        0.2526
     34 O          65.4654   93.3474   10.8373 O.3     1  UNL1       -0.4691
     35 C          66.5858   93.9011   10.0077 C.3     1  UNL1        0.2526
@<TRIPOS>BOND
     1    20    21    2
     2    21    16    1
     3    16    17    2
     4    16    18   am
     5    18     9    1
     6     9    10   ar
     7    10    11   ar
     8    11    12   ar
     9    12    13   ar
    10    13    14    1
    11    13    15   ar
    12    15     7    1
    13     7     1    1
    14     1     2   ar
    15     2     3   ar
    16     3     4   ar
    17     4    22    1
    18    22    23    1
    19    23    24    1
    20    24    25   ar
    21    25    26    1
    22    25    27   ar
    23    27    32    1
    24    32    33    1
    25    27    28   ar
    26    28    29   ar
    27    29    34    1
    28    34    35    1
    29    29    30   ar
    30    30    31    1
    31     4     5   ar
    32     5     6   ar
    33    15     9   ar
    34     6     1   ar
    35    30    24   ar
    36    18    19    1
    37     7     8    1
@<TRIPOS>MOLECULE
*****
 35 37 0 0 0
SMALL
GASTEIGER

@<TRIPOS>ATOM
      1 C          61.9887   87.0497   11.1374 C.ar    1  UNL1        0.2209
      2 N          62.8744   87.5560   12.2372 N.ar    1  UNL1       -0.2088
      3 C          63.2831   88.9989   12.2667 C.ar    1  UNL1        0.1402
      4 C          62.8062   89.9355   11.1965 C.ar    1  UNL1        0.1773
      5 C          61.9206   89.4292   10.0968 C.ar    1  UNL1        0.1402
      6 N          61.5119   87.9863   10.0673 N.ar    1  UNL1       -0.2088
      7 N          61.5800   85.6067   11.1079 N.pl3   1  UNL1       -0.2818
      8 H          60.6306   85.3660   11.0084 H       1  UNL1        0.1551
      9 C          62.9500   83.9581   12.5761 C.ar    1  UNL1        0.0639
     10 C          63.9878   82.8821   12.6981 C.ar    1  UNL1        0.0159
     11 C          64.6935   82.3784   11.4740 C.ar    1  UNL1        0.0010
     12 C          64.3614   82.9508   10.1279 C.ar    1  UNL1       -0.0030
     13 C          63.3236   84.0269   10.0059 C.ar    1  UNL1       -0.0072
     14 C          62.9914   84.5994    8.6598 C.3     1  UNL1        0.0324
     15 C          62.6179   84.5306   11.2300 C.ar    1  UNL1        0.0601
     16 C          63.0155   84.7058   15.0634 C.2     1  UNL1        0.2497
     17 O          64.4923   84.4461   15.1026 O.2     1  UNL1       -0.2698
     18 N          62.2443   84.4618   13.8001 N.am    1  UNL1       -0.2794
     19 H          61.2750   84.6322   13.7744 H       1  UNL1        0.1552
     20 C          62.9487   86.2650   17.1405 C.2     1  UNL1        0.0048
     21 C          62.3098   85.2094   16.2874 C.2     1  UNL1        0.0580
     22 O          63.2149   91.3785   11.2260 O.3     1  UNL1       -0.4673
     23 C          64.6597   91.7455   11.3937 C.3     1  UNL1        0.2368
     24 C          65.2316   91.9315   12.7679 C.ar    1  UNL1        0.0821
     25 C          66.6610   92.3545   12.9344 C.ar    1  UNL1        0.1757
     26 F          67.5186   92.5914   11.7268 F       1  UNL1       -0.2011
     27 C          67.2329   92.5405   14.3086 C.ar    1  UNL1        0.1689
     28 C          66.3753   92.3036   15.5162 C.ar    1  UNL1        0.0784
     29 C          64.9458   91.8806   15.3497 C.ar    1  UNL1        0.1689
     30 C          64.3739   91.6946   13.9756 C.ar    1  UNL1        0.1757
     31 F          62.9445   91.2716   13.8090 F       1  UNL1       -0.2011
     32 O          68.6623   92.9635   14.4752 O.3     1  UNL1       -0.4691
     33 C          69.1614   93.4078   15.8181 C.3     1  UNL1        0.2526
     34 O          64.0882   91.6437   16.5574 O.3     1  UNL1       -0.4691
     35 C          63.3965   90.3252   16.7391 C.3     1  UNL1        0.2526
@<TRIPOS>BOND
     1    20    21    2
     2    21    16    1
     3    16    17    2
     4    16    18   am
     5    18     9    1
     6     9    10   ar
     7    10    11   ar
     8    11    12   ar
     9    12    13   ar
    10    13    14    1
    11    13    15   ar
    12    15     7    1
    13     7     1    1
    14     1     2   ar
    15     2     3   ar
    16     3     4   ar
    17     4    22    1
    18    22    23    1
    19    23    24    1
    20    24    25   ar
    21    25    26    1
    22    25    27   ar
    23    27    32    1
    24    32    33    1
    25    27    28   ar
    26    28    29   ar
    27    29    34    1
    28    34    35    1
    29    29    30   ar
    30    30    31    1
    31     4     5   ar
    32     5     6   ar
    33    15     9   ar
    34     6     1   ar
    35    30    24   ar
    36    18    19    1
    37     7     8    1
@<TRIPOS>MOLECULE
*****
 35 37 0 0 0
SMALL
GASTEIGER

@<TRIPOS>ATOM
      1 C          63.8153   89.3464   15.5608 C.ar    1  UNL1        0.2209
      2 N          63.0122   88.6771   16.6365 N.ar    1  UNL1       -0.2088
      3 C          62.9292   87.1803   16.6890 C.ar    1  UNL1        0.1402
      4 C          63.6493   86.3529   15.6657 C.ar    1  UNL1        0.1773
      5 C          64.4523   87.0223   14.5901 C.ar    1  UNL1        0.1402
      6 N          64.5353   88.5190   14.5377 N.ar    1  UNL1       -0.2088
      7 N          63.8983   90.8432   15.5083 N.pl3   1  UNL1       -0.2818
      8 H          63.4686   91.3849   16.2092 H       1  UNL1        0.1551
      9 C          64.1176   91.4168   12.9839 C.ar    1  UNL1        0.0639
     10 C          64.8552   92.0882   11.8636 C.ar    1  UNL1        0.0159
     11 C          66.1113   92.8575   12.1475 C.ar    1  UNL1        0.0010
     12 C          66.6296   92.9554   13.5516 C.ar    1  UNL1       -0.0030
     13 C          65.8919   92.2840   14.6719 C.ar    1  UNL1       -0.0072
     14 C          66.4103   92.3819   16.0761 C.3     1  UNL1        0.0324
     15 C          64.6359   91.5147   14.3880 C.ar    1  UNL1        0.0601
     16 C          62.3125   90.5963   11.3050 C.2     1  UNL1        0.2497
     17 O          63.0194   91.3146   10.1939 O.2     1  UNL1       -0.2698
     18 N          62.8616   90.6474   12.7000 N.am    1  UNL1       -0.2794
     19 H          62.3976   90.1760   13.4292 H       1  UNL1        0.1552
     20 C          59.7193   90.4376   11.3199 C.2     1  UNL1        0.0048
     21 C          61.0565   89.8270   11.0212 C.2     1  UNL1        0.0580
     22 O          63.5663   84.8561   15.7182 O.3     1  UNL1       -0.4673
     23 C          62.4385   84.1430   15.0328 C.3     1  UNL1        0.2368
     24 C          62.6678   83.4745   13.7097 C.ar    1  UNL1        0.0821
     25 C          62.5652   81.9825   13.5954 C.ar    1  UNL1        0.1757
     26 F          62.2333   81.1588   14.8043 F       1  UNL1       -0.2011
     27 C          62.7945   81.3140   12.2723 C.ar    1  UNL1        0.1689
     28 C          63.1264   82.1376   11.0635 C.ar    1  UNL1        0.0784
     29 C          63.2291   83.6298   11.1777 C.ar    1  UNL1        0.1689
     30 C          62.9997   84.2983   12.5008 C.ar    1  UNL1        0.1757
     31 F          63.1023   85.7904   12.6150 F       1  UNL1       -0.2011
     32 O          62.6919   79.8219   12.1581 O.3     1  UNL1       -0.4691
     33 C          62.7628   79.1662   10.8109 C.3     1  UNL1        0.2526
     34 O          63.5610   84.4535    9.9688 O.3     1  UNL1       -0.4691
     35 C          62.5645   85.4407    9.4372 C.3     1  UNL1        0.2526
@<TRIPOS>BOND
     1    20    21    2
     2    21    16    1
     3    16    17    2
     4    16    18   am
     5    18     9    1
     6     9    10   ar
     7    10    11   ar
     8    11    12   ar
     9    12    13   ar
    10    13    14    1
    11    13    15   ar
    12    15     7    1
    13     7     1    1
    14     1     2   ar
    15     2     3   ar
    16     3     4   ar
    17     4    22    1
    18    22    23    1
    19    23    24    1
    20    24    25   ar
    21    25    26    1
    22    25    27   ar
    23    27    32    1
    24    32    33    1
    25    27    28   ar
    26    28    29   ar
    27    29    34    1
    28    34    35    1
    29    29    30   ar
    30    30    31    1
    31     4     5   ar
    32     5     6   ar
    33    15     9   ar
    34     6     1   ar
    35    30    24   ar
    36    18    19    1
    37     7     8    1
@<TRIPOS>MOLECULE
*****
 35 37 0 0 0
SMALL
GASTEIGER

@<TRIPOS>ATOM
      1 C          63.8013   89.2736   15.6222 C.ar    1  UNL1        0.2209
      2 N          64.5150   88.4633   14.5809 N.ar    1  UNL1       -0.2088
      3 C          64.4242   86.9662   14.6032 C.ar    1  UNL1        0.1402
      4 C          63.6197   86.2794   15.6668 C.ar    1  UNL1        0.1773
      5 C          62.9061   87.0896   16.7080 C.ar    1  UNL1        0.1402
      6 N          62.9968   88.5867   16.6857 N.ar    1  UNL1       -0.2088
      7 N          63.8921   90.7706   15.5999 N.pl3   1  UNL1       -0.2818
      8 H          63.4892   91.2991   16.3263 H       1  UNL1        0.1551
      9 C          64.0594   91.3568   13.0743 C.ar    1  UNL1        0.0639
     10 C          64.7640   92.0487   11.9453 C.ar    1  UNL1        0.0159
     11 C          66.0058   92.8464   12.2127 C.ar    1  UNL1        0.0010
     12 C          66.5431   92.9521   13.6091 C.ar    1  UNL1       -0.0030
     13 C          65.8385   92.2602   14.7381 C.ar    1  UNL1       -0.0072
     14 C          66.3758   92.3660   16.1347 C.3     1  UNL1        0.0324
     15 C          64.5967   91.4626   14.4707 C.ar    1  UNL1        0.0601
     16 C          62.2330   90.5217   11.4260 C.2     1  UNL1        0.2497
     17 O          62.8904   91.2819   10.3124 O.2     1  UNL1       -0.2698
     18 N          62.8175   90.5591   12.8069 N.am    1  UNL1       -0.2794
     19 H          62.3861   90.0602   13.5378 H       1  UNL1        0.1552
     20 C          59.6417   90.3388   11.3849 C.2     1  UNL1        0.0048
     21 C          60.9911   89.7240   11.1586 C.2     1  UNL1        0.0580
     22 O          63.5290   84.7823   15.6891 O.3     1  UNL1       -0.4673
     23 C          62.4050   84.0884   14.9781 C.3     1  UNL1        0.2368
     24 C          62.6542   83.4104   13.6635 C.ar    1  UNL1        0.0821
     25 C          63.0206   84.2238   12.4577 C.ar    1  UNL1        0.1757
     26 F          63.1377   85.7153   12.5665 F       1  UNL1       -0.2011
     27 C          63.2697   83.5458   11.1431 C.ar    1  UNL1        0.1689
     28 C          63.1526   82.0544   11.0343 C.ar    1  UNL1        0.0784
     29 C          62.7862   81.2409   12.2402 C.ar    1  UNL1        0.1689
     30 C          62.5370   81.9189   13.5548 C.ar    1  UNL1        0.1757
     31 F          62.1706   81.1055   14.7606 F       1  UNL1       -0.2011
     32 O          63.6361   84.3593    9.9372 O.3     1  UNL1       -0.4691
     33 C          62.6729   85.3738    9.3960 C.3     1  UNL1        0.2526
     34 O          62.6690   79.7495   12.1314 O.3     1  UNL1       -0.4691
     35 C          62.7690   79.0851   10.7902 C.3     1  UNL1        0.2526
@<TRIPOS>BOND
     1    20    21    2
     2    21    16    1
     3    16    17    2
     4    16    18   am
     5    18     9    1
     6     9    10   ar
     7    10    11   ar
     8    11    12   ar
     9    12    13   ar
    10    13    14    1
    11    13    15   ar
    12    15     7    1
    13     7     1    1
    14     1     2   ar
    15     2     3   ar
    16     3     4   ar
    17     4    22    1
    18    22    23    1
    19    23    24    1
    20    24    25   ar
    21    25    26    1
    22    25    27   ar
    23    27    32    1
    24    32    33    1
    25    27    28   ar
    26    28    29   ar
    27    29    34    1
    28    34    35    1
    29    29    30   ar
    30    30    31    1
    31     4     5   ar
    32     5     6   ar
    33    15     9   ar
    34     6     1   ar
    35    30    24   ar
    36    18    19    1
    37     7     8    1
