@<TRIPOS>MOLECULE
*****
 42 45 0 0 0
SMALL
GASTEIGER

@<TRIPOS>ATOM
      1 N          59.5594   88.6065    7.7571 N.am    1  UNL1       -0.2724
      2 C          60.2681   88.9903    9.0222 C.2     1  UNL1        0.2491
      3 O          60.0831   90.3626    9.5988 O.2     1  UNL1       -0.2727
      4 C          59.7444   87.2341    7.1805 C.3     1  UNL1        0.1111
      5 C          60.3712   86.1513    8.0078 C.3     1  UNL1        0.0939
      6 N          61.4933   85.3310    7.4438 N.3     1  UNL1       -0.2712
      7 C          63.5411   84.2748    8.6442 C.3     1  UNL1        0.0188
      8 C          62.8759   85.4608    8.0110 C.3     1  UNL1        0.0722
      9 C          61.2328   84.3810    6.3126 C.3     1  UNL1        0.0722
     10 C          62.2334   84.2430    5.2036 C.3     1  UNL1        0.0188
     11 C          58.6656   89.5950    7.0687 C.3     1  UNL1        0.1202
     12 C          59.2026   90.4415    5.9528 C.ar    1  UNL1       -0.0023
     13 C          58.2840   91.3524    5.1936 C.ar    1  UNL1       -0.0026
     14 C          58.8210   92.1988    4.0778 C.ar    1  UNL1       -0.0003
     15 C          60.2766   92.1343    3.7211 C.ar    1  UNL1       -0.0000
     16 C          61.1951   91.2233    4.4802 C.ar    1  UNL1       -0.0003
     17 C          60.6581   90.3769    5.5961 C.ar    1  UNL1       -0.0026
     18 C          60.8135   92.9808    2.6051 C.ar    1  UNL1        0.0001
     19 C          60.1655   94.2942    2.2814 C.ar    1  UNL1        0.0009
     20 C          60.7024   95.1407    1.1655 C.ar    1  UNL1        0.0114
     21 C          61.8875   94.6737    0.3733 C.ar    1  UNL1        0.0577
     22 CL         62.4245   95.5201   -0.7425 Cl      1  UNL1       -0.0822
     23 C          62.5356   93.3601    0.6971 C.ar    1  UNL1        0.0114
     24 C          61.9986   92.5137    1.8130 C.ar    1  UNL1        0.0009
     25 C          61.1620   88.0017    9.7106 C.3     1  UNL1        0.1934
     26 N          62.0593   88.4513   10.8253 N.ar    1  UNL1       -0.2979
     27 C          62.4635   89.8922   10.9280 C.ar    1  UNL1        0.0782
     28 C          63.3608   90.3418   12.0427 C.ar    1  UNL1        0.0532
     29 C          63.7651   91.7827   12.1454 C.3     1  UNL1        0.0377
     30 C          63.8539   89.3506   13.0548 C.ar    1  UNL1        0.2783
     31 O          64.7513   89.8002   14.1696 O.2     1  UNL1       -0.2654
     32 N          63.4497   87.9097   12.9522 N.ar    1  UNL1       -0.1847
     33 C          62.5524   87.4601   11.8374 C.ar    1  UNL1        0.1750
     34 S          62.1481   86.0193   11.7347 S.3     1  UNL1       -0.0724
     35 C          63.1891   84.9415   11.8046 C.3     1  UNL1        0.0913
     36 C          62.8367   83.5934   12.3600 C.ar    1  UNL1       -0.0108
     37 C          62.9402   82.3743   11.4923 C.ar    1  UNL1       -0.0011
     38 C          62.5879   81.0262   12.0477 C.ar    1  UNL1        0.0293
     39 C          62.1321   80.8972   13.4710 C.ar    1  UNL1        0.1401
     40 F          61.7798   79.5492   14.0265 F       1  UNL1       -0.2042
     41 C          62.0286   82.1164   14.3388 C.ar    1  UNL1        0.0293
     42 C          62.3809   83.4645   13.7833 C.ar    1  UNL1       -0.0011
@<TRIPOS>BOND
     1     7     8    1
     2     8     6    1
     3     6     9    1
     4     9    10    1
     5     6     5    1
     6     5     4    1
     7     4     1    1
     8     1    11    1
     9    11    12    1
    10    12    13   ar
    11    13    14   ar
    12    14    15   ar
    13    15    18    1
    14    18    19   ar
    15    19    20   ar
    16    20    21   ar
    17    21    22    1
    18    21    23   ar
    19    23    24   ar
    20    15    16   ar
    21    16    17   ar
    22     1     2   am
    23     2     3    2
    24     2    25    1
    25    25    26    1
    26    26    27   ar
    27    27    28   ar
    28    28    29    1
    29    28    30   ar
    30    30    31    2
    31    30    32   ar
    32    32    33   ar
    33    33    34    1
    34    34    35    1
    35    35    36    1
    36    36    37   ar
    37    37    38   ar
    38    38    39   ar
    39    39    40    1
    40    39    41   ar
    41    41    42   ar
    42    17    12   ar
    43    33    26   ar
    44    42    36   ar
    45    24    18   ar
@<TRIPOS>MOLECULE
*****
 42 45 0 0 0
SMALL
GASTEIGER

@<TRIPOS>ATOM
      1 N          63.8696   88.7038   14.8961 N.am    1  UNL1       -0.2724
      2 C          63.9450   90.0258   15.6009 C.2     1  UNL1        0.2491
      3 O          63.6673   90.1079   17.0727 O.2     1  UNL1       -0.2727
      4 C          64.1473   88.6218   13.4242 C.3     1  UNL1        0.1111
      5 C          63.1835   89.2226   12.4445 C.3     1  UNL1        0.0939
      6 N          62.2115   88.3444   11.7139 N.3     1  UNL1       -0.2712
      7 C          61.4997   85.9136   11.1351 C.3     1  UNL1        0.0188
      8 C          62.5767   86.9250   11.3945 C.3     1  UNL1        0.0722
      9 C          60.8742   88.8854   11.3028 C.3     1  UNL1        0.0722
     10 C          60.7443   89.6835   10.0394 C.3     1  UNL1        0.0188
     11 C          63.5165   87.4640   15.6629 C.3     1  UNL1        0.1202
     12 C          63.3946   86.1501   14.9496 C.ar    1  UNL1       -0.0023
     13 C          64.5204   85.6558   14.0905 C.ar    1  UNL1       -0.0026
     14 C          64.3985   84.3419   13.3772 C.ar    1  UNL1       -0.0003
     15 C          63.1506   83.5224   13.5230 C.ar    1  UNL1       -0.0000
     16 C          62.0248   84.0167   14.3820 C.ar    1  UNL1       -0.0003
     17 C          62.1467   85.3306   15.0953 C.ar    1  UNL1       -0.0026
     18 C          63.0287   82.2084   12.8096 C.ar    1  UNL1        0.0001
     19 C          62.6209   80.9792   13.5663 C.ar    1  UNL1        0.0009
     20 C          62.4990   79.6653   12.8530 C.ar    1  UNL1        0.0114
     21 C          62.7849   79.5807   11.3829 C.ar    1  UNL1        0.0577
     22 CL         62.6630   78.2668   10.6696 Cl      1  UNL1       -0.0822
     23 C          63.1927   80.8100   10.6262 C.ar    1  UNL1        0.0114
     24 C          63.3146   82.1238   11.3396 C.ar    1  UNL1        0.0009
     25 C          64.2981   91.2656   14.8340 C.3     1  UNL1        0.1934
     26 N          65.7363   91.6516   14.6533 N.ar    1  UNL1       -0.2979
     27 C          66.6461   91.7333   15.8432 C.ar    1  UNL1        0.0782
     28 C          68.0843   92.1192   15.6625 C.ar    1  UNL1        0.0532
     29 C          68.9940   92.2009   16.8523 C.3     1  UNL1        0.0377
     30 C          68.6127   92.4236   14.2920 C.ar    1  UNL1        0.2783
     31 O          70.0509   92.8096   14.1114 O.2     1  UNL1       -0.2654
     32 N          67.7029   92.3419   13.1023 N.ar    1  UNL1       -0.1847
     33 C          66.2647   91.9559   13.2829 C.ar    1  UNL1        0.1750
     34 S          65.3549   91.8743   12.0931 S.3     1  UNL1       -0.0724
     35 C          64.7998   93.1286   11.4860 C.3     1  UNL1        0.0913
     36 C          65.6631   93.9803   10.6032 C.ar    1  UNL1       -0.0108
     37 C          66.8078   93.3648    9.8545 C.ar    1  UNL1       -0.0011
     38 C          67.6712   94.2165    8.9717 C.ar    1  UNL1        0.0293
     39 C          67.3898   95.6837    8.8377 C.ar    1  UNL1        0.1401
     40 F          68.2530   96.5355    7.9550 F       1  UNL1       -0.2042
     41 C          66.2450   96.2993    9.5865 C.ar    1  UNL1        0.0293
     42 C          65.3817   95.4476   10.4692 C.ar    1  UNL1       -0.0011
@<TRIPOS>BOND
     1     7     8    1
     2     8     6    1
     3     6     9    1
     4     9    10    1
     5     6     5    1
     6     5     4    1
     7     4     1    1
     8     1    11    1
     9    11    12    1
    10    12    13   ar
    11    13    14   ar
    12    14    15   ar
    13    15    18    1
    14    18    19   ar
    15    19    20   ar
    16    20    21   ar
    17    21    22    1
    18    21    23   ar
    19    23    24   ar
    20    15    16   ar
    21    16    17   ar
    22     1     2   am
    23     2     3    2
    24     2    25    1
    25    25    26    1
    26    26    27   ar
    27    27    28   ar
    28    28    29    1
    29    28    30   ar
    30    30    31    2
    31    30    32   ar
    32    32    33   ar
    33    33    34    1
    34    34    35    1
    35    35    36    1
    36    36    37   ar
    37    37    38   ar
    38    38    39   ar
    39    39    40    1
    40    39    41   ar
    41    41    42   ar
    42    17    12   ar
    43    33    26   ar
    44    42    36   ar
    45    24    18   ar
@<TRIPOS>MOLECULE
*****
 42 45 0 0 0
SMALL
GASTEIGER

@<TRIPOS>ATOM
      1 N          61.8858   87.2965   11.8599 N.am    1  UNL1       -0.2724
      2 C          62.3213   88.5109   12.6250 C.2     1  UNL1        0.2491
      3 O          61.4254   89.7116   12.6994 O.2     1  UNL1       -0.2727
      4 C          62.7818   86.0957   11.7855 C.3     1  UNL1        0.1111
      5 C          62.3890   84.9178   10.9441 C.3     1  UNL1        0.0939
      6 N          63.1788   84.5772    9.7153 N.3     1  UNL1       -0.2712
      7 C          62.5164   84.7647    7.2100 C.3     1  UNL1        0.0188
      8 C          63.0223   85.4003    8.4710 C.3     1  UNL1        0.0722
      9 C          64.1253   83.4135    9.7306 C.3     1  UNL1        0.0722
     10 C          63.7707   82.1683   10.4882 C.3     1  UNL1        0.0188
     11 C          60.5545   87.2827   11.1691 C.3     1  UNL1        0.1202
     12 C          60.3545   88.0732    9.9100 C.ar    1  UNL1       -0.0023
     13 C          59.6852   87.4411    8.7259 C.ar    1  UNL1       -0.0026
     14 C          59.4853   88.2316    7.4669 C.ar    1  UNL1       -0.0003
     15 C          59.9548   89.6543    7.3921 C.ar    1  UNL1       -0.0000
     16 C          60.6241   90.2864    8.5763 C.ar    1  UNL1       -0.0003
     17 C          60.8240   89.4959    9.8352 C.ar    1  UNL1       -0.0026
     18 C          59.7548   90.4448    6.1330 C.ar    1  UNL1        0.0001
     19 C          60.9334   90.8024    5.2769 C.ar    1  UNL1        0.0009
     20 C          60.7335   91.5929    4.0178 C.ar    1  UNL1        0.0114
     21 C          59.3550   92.0258    3.6150 C.ar    1  UNL1        0.0577
     22 CL         59.1550   92.8163    2.3560 Cl      1  UNL1       -0.0822
     23 C          58.1764   91.6682    4.4712 C.ar    1  UNL1        0.0114
     24 C          58.3763   90.8777    5.7302 C.ar    1  UNL1        0.0009
     25 C          63.6528   88.5246   13.3158 C.3     1  UNL1        0.1934
     26 N          63.9764   89.6102   14.2991 N.ar    1  UNL1       -0.2979
     27 C          64.8489   90.7590   13.8877 C.ar    1  UNL1        0.0782
     28 C          65.1726   91.8446   14.8709 C.ar    1  UNL1        0.0532
     29 C          66.0450   92.9933   14.4596 C.3     1  UNL1        0.0377
     30 C          64.6237   91.7814   16.2655 C.ar    1  UNL1        0.2783
     31 O          64.9473   92.8670   17.2487 O.2     1  UNL1       -0.2654
     32 N          63.7512   90.6327   16.6768 N.ar    1  UNL1       -0.1847
     33 C          63.4276   89.5471   15.6936 C.ar    1  UNL1        0.1750
     34 S          62.5551   88.3984   16.1049 S.3     1  UNL1       -0.0724
     35 C          63.1551   87.2121   16.7999 C.3     1  UNL1        0.0913
     36 C          63.4099   85.9459   16.0373 C.ar    1  UNL1       -0.0108
     37 C          62.4250   84.8168   16.1080 C.ar    1  UNL1       -0.0011
     38 C          62.6798   83.5504   15.3454 C.ar    1  UNL1        0.0293
     39 C          63.9195   83.4132   14.5122 C.ar    1  UNL1        0.1401
     40 F          64.1743   82.1469   13.7497 F       1  UNL1       -0.2042
     41 C          64.9045   84.5423   14.4416 C.ar    1  UNL1        0.0293
     42 C          64.6497   85.8086   15.2042 C.ar    1  UNL1       -0.0011
@<TRIPOS>BOND
     1     7     8    1
     2     8     6    1
     3     6     9    1
     4     9    10    1
     5     6     5    1
     6     5     4    1
     7     4     1    1
     8     1    11    1
     9    11    12    1
    10    12    13   ar
    11    13    14   ar
    12    14    15   ar
    13    15    18    1
    14    18    19   ar
    15    19    20   ar
    16    20    21   ar
    17    21    22    1
    18    21    23   ar
    19    23    24   ar
    20    15    16   ar
    21    16    17   ar
    22     1     2   am
    23     2     3    2
    24     2    25    1
    25    25    26    1
    26    26    27   ar
    27    27    28   ar
    28    28    29    1
    29    28    30   ar
    30    30    31    2
    31    30    32   ar
    32    32    33   ar
    33    33    34    1
    34    34    35    1
    35    35    36    1
    36    36    37   ar
    37    37    38   ar
    38    38    39   ar
    39    39    40    1
    40    39    41   ar
    41    41    42   ar
    42    17    12   ar
    43    33    26   ar
    44    42    36   ar
    45    24    18   ar
@<TRIPOS>MOLECULE
*****
 42 45 0 0 0
SMALL
GASTEIGER

@<TRIPOS>ATOM
      1 N          61.2291   86.3364   10.6661 N.am    1  UNL1       -0.2724
      2 C          62.0490   85.2475   10.0400 C.2     1  UNL1        0.2491
      3 O          61.5674   84.5694    8.7917 O.2     1  UNL1       -0.2727
      4 C          61.7108   87.0145   11.9144 C.3     1  UNL1        0.1111
      5 C          62.5524   88.2524   11.8184 C.3     1  UNL1        0.0939
      6 N          61.9358   89.5988   12.0564 N.3     1  UNL1       -0.2712
      7 C          63.2015   91.1860   10.4350 C.3     1  UNL1        0.0188
      8 C          62.7386   90.8438   11.8201 C.3     1  UNL1        0.0722
      9 C          60.5164   89.7005   12.5306 C.3     1  UNL1        0.0722
     10 C          59.4984   90.4251   11.7007 C.3     1  UNL1        0.0188
     11 C          59.9275   86.7472   10.0439 C.3     1  UNL1        0.1202
     12 C          59.9154   87.7273    8.9083 C.ar    1  UNL1       -0.0023
     13 C          60.4935   89.0987    9.0949 C.ar    1  UNL1       -0.0026
     14 C          60.4813   90.0786    7.9593 C.ar    1  UNL1       -0.0003
     15 C          59.8910   89.6871    6.6371 C.ar    1  UNL1       -0.0000
     16 C          59.3129   88.3157    6.4505 C.ar    1  UNL1       -0.0003
     17 C          59.3251   87.3357    7.5860 C.ar    1  UNL1       -0.0026
     18 C          59.8788   90.6671    5.5015 C.ar    1  UNL1        0.0001
     19 C          58.5955   91.3293    5.0960 C.ar    1  UNL1        0.0009
     20 C          58.5833   92.3093    3.9604 C.ar    1  UNL1        0.0114
     21 C          59.8546   92.6271    3.2304 C.ar    1  UNL1        0.0577
     22 CL         59.8425   93.6070    2.0948 Cl      1  UNL1       -0.0822
     23 C          61.1380   91.9648    3.6359 C.ar    1  UNL1        0.0114
     24 C          61.1501   90.9849    4.7715 C.ar    1  UNL1        0.0009
     25 C          63.3506   84.8366   10.6623 C.3     1  UNL1        0.1934
     26 N          63.3999   83.6582   11.5890 N.ar    1  UNL1       -0.2979
     27 C          63.0239   82.2947   11.0891 C.ar    1  UNL1        0.0782
     28 C          63.0732   81.1163   12.0159 C.ar    1  UNL1        0.0532
     29 C          62.6973   79.7529   11.5161 C.3     1  UNL1        0.0377
     30 C          63.4985   81.3013   13.4424 C.ar    1  UNL1        0.2783
     31 O          63.5478   80.1228   14.3691 O.2     1  UNL1       -0.2654
     32 N          63.8745   82.6646   13.9422 N.ar    1  UNL1       -0.1847
     33 C          63.8252   83.8431   13.0155 C.ar    1  UNL1        0.1750
     34 S          64.2012   85.2065   13.5152 S.3     1  UNL1       -0.0724
     35 C          64.0649   85.5351   14.9725 C.3     1  UNL1        0.0913
     36 C          63.8928   86.9604   15.4070 C.ar    1  UNL1       -0.0108
     37 C          63.2174   87.2709   16.7098 C.ar    1  UNL1       -0.0011
     38 C          63.0454   88.6962   17.1445 C.ar    1  UNL1        0.0293
     39 C          63.5487   89.8110   16.2762 C.ar    1  UNL1        0.1401
     40 F          63.3767   91.2363   16.7107 F       1  UNL1       -0.2042
     41 C          64.2242   89.5004   14.9733 C.ar    1  UNL1        0.0293
     42 C          64.3962   88.0751   14.5388 C.ar    1  UNL1       -0.0011
@<TRIPOS>BOND
     1     7     8    1
     2     8     6    1
     3     6     9    1
     4     9    10    1
     5     6     5    1
     6     5     4    1
     7     4     1    1
     8     1    11    1
     9    11    12    1
    10    12    13   ar
    11    13    14   ar
    12    14    15   ar
    13    15    18    1
    14    18    19   ar
    15    19    20   ar
    16    20    21   ar
    17    21    22    1
    18    21    23   ar
    19    23    24   ar
    20    15    16   ar
    21    16    17   ar
    22     1     2   am
    23     2     3    2
    24     2    25    1
    25    25    26    1
    26    26    27   ar
    27    27    28   ar
    28    28    29    1
    29    28    30   ar
    30    30    31    2
    31    30    32   ar
    32    32    33   ar
    33    33    34    1
    34    34    35    1
    35    35    36    1
    36    36    37   ar
    37    37    38   ar
    38    38    39   ar
    39    39    40    1
    40    39    41   ar
    41    41    42   ar
    42    17    12   ar
    43    33    26   ar
    44    42    36   ar
    45    24    18   ar
@<TRIPOS>MOLECULE
*****
 42 45 0 0 0
SMALL
GASTEIGER

@<TRIPOS>ATOM
      1 N          61.1145   88.7436   11.3869 N.am    1  UNL1       -0.2724
      2 C          62.0662   87.7363   11.9612 C.2     1  UNL1        0.2491
      3 O          63.4751   88.1357   12.2858 O.2     1  UNL1       -0.2727
      4 C          59.7056   88.3442   11.0623 C.3     1  UNL1        0.1111
      5 C          59.4255   87.4932    9.8592 C.3     1  UNL1        0.0939
      6 N          60.0190   87.8551    8.5301 N.3     1  UNL1       -0.2712
      7 C          59.3759   89.3437    6.5001 C.3     1  UNL1        0.0188
      8 C          59.7692   89.2121    7.9416 C.3     1  UNL1        0.0722
      9 C          60.8623   86.8601    7.7893 C.3     1  UNL1        0.0722
     10 C          60.2594   85.5703    7.3169 C.3     1  UNL1        0.0188
     11 C          61.5718   90.1502   11.1373 C.3     1  UNL1        0.1202
     12 C          62.7475   90.7011   11.8884 C.ar    1  UNL1       -0.0023
     13 C          62.8034   90.5864   13.3829 C.ar    1  UNL1       -0.0026
     14 C          63.9791   91.1373   14.1340 C.ar    1  UNL1       -0.0003
     15 C          65.0990   91.8029   13.3905 C.ar    1  UNL1       -0.0000
     16 C          65.0432   91.9177   11.8960 C.ar    1  UNL1       -0.0003
     17 C          63.8674   91.3667   11.1449 C.ar    1  UNL1       -0.0026
     18 C          66.2748   92.3539   14.1416 C.ar    1  UNL1        0.0001
     19 C          66.5508   93.8281   14.1259 C.ar    1  UNL1        0.0009
     20 C          67.7266   94.3791   14.8771 C.ar    1  UNL1        0.0114
     21 C          68.6262   93.4557   15.6439 C.ar    1  UNL1        0.0577
     22 CL         69.8019   94.0065   16.3950 Cl      1  UNL1       -0.0822
     23 C          68.3501   91.9813   15.6596 C.ar    1  UNL1        0.0114
     24 C          67.1744   91.4305   14.9085 C.ar    1  UNL1        0.0009
     25 C          61.6089   86.3297   12.2108 C.3     1  UNL1        0.1934
     26 N          62.3433   85.1804   11.5865 N.ar    1  UNL1       -0.2979
     27 C          62.6619   85.2013   10.1208 C.ar    1  UNL1        0.0782
     28 C          63.3963   84.0520    9.4964 C.ar    1  UNL1        0.0532
     29 C          63.7149   84.0729    8.0309 C.3     1  UNL1        0.0377
     30 C          63.8120   82.8818   10.3378 C.ar    1  UNL1        0.2783
     31 O          64.5464   81.7325    9.7134 O.2     1  UNL1       -0.2654
     32 N          63.4934   82.8608   11.8033 N.ar    1  UNL1       -0.1847
     33 C          62.7590   84.0101   12.4277 C.ar    1  UNL1        0.1750
     34 S          62.4403   83.9892   13.8933 S.3     1  UNL1       -0.0724
     35 C          63.4904   84.3698   14.8946 C.3     1  UNL1        0.0913
     36 C          63.4605   85.7265   15.5338 C.ar    1  UNL1       -0.0108
     37 C          64.1918   86.8713   14.8979 C.ar    1  UNL1       -0.0011
     38 C          64.1620   88.2281   15.5371 C.ar    1  UNL1        0.0293
     39 C          63.4008   88.4398   16.8121 C.ar    1  UNL1        0.1401
     40 F          63.3710   89.7965   17.4513 F       1  UNL1       -0.2042
     41 C          62.6695   87.2949   17.4481 C.ar    1  UNL1        0.0293
     42 C          62.6994   85.9382   16.8089 C.ar    1  UNL1       -0.0011
@<TRIPOS>BOND
     1     7     8    1
     2     8     6    1
     3     6     9    1
     4     9    10    1
     5     6     5    1
     6     5     4    1
     7     4     1    1
     8     1    11    1
     9    11    12    1
    10    12    13   ar
    11    13    14   ar
    12    14    15   ar
    13    15    18    1
    14    18    19   ar
    15    19    20   ar
    16    20    21   ar
    17    21    22    1
    18    21    23   ar
    19    23    24   ar
    20    15    16   ar
    21    16    17   ar
    22     1     2   am
    23     2     3    2
    24     2    25    1
    25    25    26    1
    26    26    27   ar
    27    27    28   ar
    28    28    29    1
    29    28    30   ar
    30    30    31    2
    31    30    32   ar
    32    32    33   ar
    33    33    34    1
    34    34    35    1
    35    35    36    1
    36    36    37   ar
    37    37    38   ar
    38    38    39   ar
    39    39    40    1
    40    39    41   ar
    41    41    42   ar
    42    17    12   ar
    43    33    26   ar
    44    42    36   ar
    45    24    18   ar
@<TRIPOS>MOLECULE
*****
 42 45 0 0 0
SMALL
GASTEIGER

@<TRIPOS>ATOM
      1 N          61.4677   88.1766   10.2268 N.am    1  UNL1       -0.2724
      2 C          62.1961   86.8821   10.0177 C.2     1  UNL1        0.2491
      3 O          63.5686   86.8830    9.4125 O.2     1  UNL1       -0.2727
      4 C          60.0952   88.1756   10.8320 C.3     1  UNL1        0.1111
      5 C          58.8861   88.0888    9.9487 C.3     1  UNL1        0.0939
      6 N          59.0458   88.0826    8.4572 N.3     1  UNL1       -0.2712
      7 C          60.0133   85.9193    7.3921 C.3     1  UNL1        0.0188
      8 C          58.8440   86.8115    7.6866 C.3     1  UNL1        0.0722
      9 C          59.4073   89.3473    7.7363 C.3     1  UNL1        0.0722
     10 C          59.2483   89.4335    6.2472 C.3     1  UNL1        0.0188
     11 C          62.1118   89.4720    9.8308 C.3     1  UNL1        0.1202
     12 C          63.0738   90.1472   10.7629 C.ar    1  UNL1       -0.0023
     13 C          63.8384   91.3542   10.3065 C.ar    1  UNL1       -0.0026
     14 C          64.8003   92.0293   11.2387 C.ar    1  UNL1       -0.0003
     15 C          64.9976   91.4974   12.6272 C.ar    1  UNL1       -0.0000
     16 C          64.2330   90.2903   13.0836 C.ar    1  UNL1       -0.0003
     17 C          63.2711   89.6152   12.1515 C.ar    1  UNL1       -0.0026
     18 C          65.9596   92.1725   13.5594 C.ar    1  UNL1        0.0001
     19 C          66.6308   91.3841   14.6446 C.ar    1  UNL1        0.0009
     20 C          67.5928   92.0593   15.5768 C.ar    1  UNL1        0.0114
     21 C          67.8835   93.5229   15.4236 C.ar    1  UNL1        0.0577
     22 CL         68.8454   94.1980   16.3557 Cl      1  UNL1       -0.0822
     23 C          67.2122   94.3113   14.3383 C.ar    1  UNL1        0.0114
     24 C          66.2503   93.6361   13.4062 C.ar    1  UNL1        0.0009
     25 C          61.5520   85.5866   10.4138 C.3     1  UNL1        0.1934
     26 N          62.3694   84.5111   11.0659 N.ar    1  UNL1       -0.2979
     27 C          62.3814   83.1256   10.4910 C.ar    1  UNL1        0.0782
     28 C          63.1989   82.0502   11.1431 C.ar    1  UNL1        0.0532
     29 C          63.2109   80.6648   10.5683 C.3     1  UNL1        0.0377
     30 C          64.0043   82.3602   12.3700 C.ar    1  UNL1        0.2783
     31 O          64.8217   81.2847   13.0221 O.2     1  UNL1       -0.2654
     32 N          63.9922   83.7456   12.9448 N.ar    1  UNL1       -0.1847
     33 C          63.1748   84.8211   12.2927 C.ar    1  UNL1        0.1750
     34 S          63.1627   86.2065   12.8675 S.3     1  UNL1       -0.0724
     35 C          64.1585   86.5897   13.9219 C.3     1  UNL1        0.0913
     36 C          63.7154   86.7625   15.3445 C.ar    1  UNL1       -0.0108
     37 C          63.5458   88.1393   15.9152 C.ar    1  UNL1       -0.0011
     38 C          63.1027   88.3122   17.3379 C.ar    1  UNL1        0.0293
     39 C          62.8293   87.1082   18.1898 C.ar    1  UNL1        0.1401
     40 F          62.3862   87.2810   19.6123 F       1  UNL1       -0.2042
     41 C          62.9989   85.7314   17.6190 C.ar    1  UNL1        0.0293
     42 C          63.4420   85.5586   16.1964 C.ar    1  UNL1       -0.0011
@<TRIPOS>BOND
     1     7     8    1
     2     8     6    1
     3     6     9    1
     4     9    10    1
     5     6     5    1
     6     5     4    1
     7     4     1    1
     8     1    11    1
     9    11    12    1
    10    12    13   ar
    11    13    14   ar
    12    14    15   ar
    13    15    18    1
    14    18    19   ar
    15    19    20   ar
    16    20    21   ar
    17    21    22    1
    18    21    23   ar
    19    23    24   ar
    20    15    16   ar
    21    16    17   ar
    22     1     2   am
    23     2     3    2
    24     2    25    1
    25    25    26    1
    26    26    27   ar
    27    27    28   ar
    28    28    29    1
    29    28    30   ar
    30    30    31    2
    31    30    32   ar
    32    32    33   ar
    33    33    34    1
    34    34    35    1
    35    35    36    1
    36    36    37   ar
    37    37    38   ar
    38    38    39   ar
    39    39    40    1
    40    39    41   ar
    41    41    42   ar
    42    17    12   ar
    43    33    26   ar
    44    42    36   ar
    45    24    18   ar
@<TRIPOS>MOLECULE
*****
 42 45 0 0 0
SMALL
GASTEIGER

@<TRIPOS>ATOM
      1 N          63.4741   90.2304   11.8236 N.am    1  UNL1       -0.2724
      2 C          64.0700   91.3401   11.0090 C.2     1  UNL1        0.2491
      3 O          63.6354   91.5441    9.5880 O.2     1  UNL1       -0.2727
      4 C          63.9088   90.0264   13.2448 C.3     1  UNL1        0.1111
      5 C          62.9176   90.1747   14.3608 C.3     1  UNL1        0.0939
      6 N          63.2596   89.6866   15.7373 N.3     1  UNL1       -0.2712
      7 C          64.1731   91.9174   16.7065 C.3     1  UNL1        0.0188
      8 C          63.3709   90.6609   16.8725 C.3     1  UNL1        0.0722
      9 C          63.4905   88.2243   15.9787 C.3     1  UNL1        0.0722
     10 C          62.9365   87.5708   17.2101 C.3     1  UNL1        0.0188
     11 C          62.4436   89.3248   11.2172 C.3     1  UNL1        0.1202
     12 C          62.4680   87.8549   11.5157 C.ar    1  UNL1       -0.0023
     13 C          63.3931   87.3185   12.5675 C.ar    1  UNL1       -0.0026
     14 C          63.4174   85.8487   12.8660 C.ar    1  UNL1       -0.0003
     15 C          62.5165   84.9154   12.1127 C.ar    1  UNL1       -0.0000
     16 C          61.5913   85.4519   11.0610 C.ar    1  UNL1       -0.0003
     17 C          61.5671   86.9217   10.7625 C.ar    1  UNL1       -0.0026
     18 C          62.5408   83.4456   12.4113 C.ar    1  UNL1        0.0001
     19 C          62.1358   82.9489   13.7674 C.ar    1  UNL1        0.0009
     20 C          62.1601   81.4791   14.0660 C.ar    1  UNL1        0.0114
     21 C          62.5895   80.5060   13.0083 C.ar    1  UNL1        0.0577
     22 CL         62.6138   79.0362   13.3068 Cl      1  UNL1       -0.0822
     23 C          62.9946   81.0027   11.6521 C.ar    1  UNL1        0.0114
     24 C          62.9702   82.4725   11.3536 C.ar    1  UNL1        0.0009
     25 C          65.1005   92.2458   11.6156 C.3     1  UNL1        0.1934
     26 N          65.8286   93.2357   10.7553 N.ar    1  UNL1       -0.2979
     27 C          65.1858   94.5470   10.4125 C.ar    1  UNL1        0.0782
     28 C          65.9138   95.5369    9.5523 C.ar    1  UNL1        0.0532
     29 C          65.2711   96.8481    9.2095 C.3     1  UNL1        0.0377
     30 C          67.2846   95.2155    9.0348 C.ar    1  UNL1        0.2783
     31 O          68.0126   96.2054    8.1745 O.2     1  UNL1       -0.2654
     32 N          67.9273   93.9043    9.3776 N.ar    1  UNL1       -0.1847
     33 C          67.1993   92.9144   10.2379 C.ar    1  UNL1        0.1750
     34 S          67.8420   91.6032   10.5807 S.3     1  UNL1       -0.0724
     35 C          68.8795   91.5364   11.6620 C.3     1  UNL1        0.0913
     36 C          68.4959   91.8054   13.0870 C.ar    1  UNL1       -0.0108
     37 C          69.4626   92.4896   14.0074 C.ar    1  UNL1       -0.0011
     38 C          69.0791   92.7587   15.4325 C.ar    1  UNL1        0.0293
     39 C          67.7289   92.3435   15.9369 C.ar    1  UNL1        0.1401
     40 F          67.3453   92.6125   17.3619 F       1  UNL1       -0.2042
     41 C          66.7621   91.6592   15.0164 C.ar    1  UNL1        0.0293
     42 C          67.1457   91.3902   13.5915 C.ar    1  UNL1       -0.0011
@<TRIPOS>BOND
     1     7     8    1
     2     8     6    1
     3     6     9    1
     4     9    10    1
     5     6     5    1
     6     5     4    1
     7     4     1    1
     8     1    11    1
     9    11    12    1
    10    12    13   ar
    11    13    14   ar
    12    14    15   ar
    13    15    18    1
    14    18    19   ar
    15    19    20   ar
    16    20    21   ar
    17    21    22    1
    18    21    23   ar
    19    23    24   ar
    20    15    16   ar
    21    16    17   ar
    22     1     2   am
    23     2     3    2
    24     2    25    1
    25    25    26    1
    26    26    27   ar
    27    27    28   ar
    28    28    29    1
    29    28    30   ar
    30    30    31    2
    31    30    32   ar
    32    32    33   ar
    33    33    34    1
    34    34    35    1
    35    35    36    1
    36    36    37   ar
    37    37    38   ar
    38    38    39   ar
    39    39    40    1
    40    39    41   ar
    41    41    42   ar
    42    17    12   ar
    43    33    26   ar
    44    42    36   ar
    45    24    18   ar
@<TRIPOS>MOLECULE
*****
 42 45 0 0 0
SMALL
GASTEIGER

@<TRIPOS>ATOM
      1 N          63.8585   88.8577   15.1203 N.am    1  UNL1       -0.2724
      2 C          63.8912   90.1767   15.8337 C.2     1  UNL1        0.2491
      3 O          63.5951   90.2424   17.3027 O.2     1  UNL1       -0.2727
      4 C          64.1546   88.7921   13.6512 C.3     1  UNL1        0.1111
      5 C          63.2267   89.4437   12.6693 C.3     1  UNL1        0.0939
      6 N          62.2878   88.6047   11.8541 N.3     1  UNL1       -0.2712
      7 C          60.5819   89.3421   10.0385 C.3     1  UNL1        0.0188
      8 C          60.9361   89.1382   11.4817 C.3     1  UNL1        0.0722
      9 C          62.7004   87.2322   11.4113 C.3     1  UNL1        0.0722
     10 C          61.6741   86.1459   11.2814 C.3     1  UNL1        0.0188
     11 C          63.5297   87.6043   15.8758 C.3     1  UNL1        0.1202
     12 C          63.4062   86.2994   15.1463 C.ar    1  UNL1       -0.0023
     13 C          64.4555   85.8921   14.1549 C.ar    1  UNL1       -0.0026
     14 C          64.3320   84.5873   13.4255 C.ar    1  UNL1       -0.0003
     15 C          63.1591   83.6897   13.6875 C.ar    1  UNL1       -0.0000
     16 C          62.1097   84.0970   14.6790 C.ar    1  UNL1       -0.0003
     17 C          62.2333   85.4018   15.4084 C.ar    1  UNL1       -0.0026
     18 C          63.0355   82.3848   12.9580 C.ar    1  UNL1        0.0001
     19 C          62.6287   81.1463   13.7001 C.ar    1  UNL1        0.0009
     20 C          62.5051   79.8414   12.9706 C.ar    1  UNL1        0.0114
     21 C          62.7885   79.7751   11.4991 C.ar    1  UNL1        0.0577
     22 CL         62.6650   78.4703   10.7696 Cl      1  UNL1       -0.0822
     23 C          63.1954   81.0136   10.7571 C.ar    1  UNL1        0.0114
     24 C          63.3189   82.3184   11.4865 C.ar    1  UNL1        0.0009
     25 C          64.2199   91.4302   15.0781 C.3     1  UNL1        0.1934
     26 N          65.6483   91.8631   14.9290 N.ar    1  UNL1       -0.2979
     27 C          66.6118   91.6736   16.0630 C.ar    1  UNL1        0.0782
     28 C          68.0402   92.1065   15.9139 C.ar    1  UNL1        0.0532
     29 C          69.0036   91.9170   17.0478 C.3     1  UNL1        0.0377
     30 C          68.5051   92.7291   14.6307 C.ar    1  UNL1        0.2783
     31 O          69.9335   93.1620   14.4816 O.2     1  UNL1       -0.2654
     32 N          67.5417   92.9186   13.4968 N.ar    1  UNL1       -0.1847
     33 C          66.1133   92.4856   13.6459 C.ar    1  UNL1        0.1750
     34 S          65.1498   92.6752   12.5120 S.3     1  UNL1       -0.0724
     35 C          65.4932   93.6012   11.3829 C.3     1  UNL1        0.0913
     36 C          66.5670   93.2258   10.4052 C.ar    1  UNL1       -0.0108
     37 C          67.2184   91.8772   10.4879 C.ar    1  UNL1       -0.0011
     38 C          68.2923   91.5018    9.5101 C.ar    1  UNL1        0.0293
     39 C          68.7147   92.4750    8.4498 C.ar    1  UNL1        0.1401
     40 F          69.7885   92.0997    7.4721 F       1  UNL1       -0.2042
     41 C          68.0632   93.8237    8.3672 C.ar    1  UNL1        0.0293
     42 C          66.9894   94.1991    9.3449 C.ar    1  UNL1       -0.0011
@<TRIPOS>BOND
     1     7     8    1
     2     8     6    1
     3     6     9    1
     4     9    10    1
     5     6     5    1
     6     5     4    1
     7     4     1    1
     8     1    11    1
     9    11    12    1
    10    12    13   ar
    11    13    14   ar
    12    14    15   ar
    13    15    18    1
    14    18    19   ar
    15    19    20   ar
    16    20    21   ar
    17    21    22    1
    18    21    23   ar
    19    23    24   ar
    20    15    16   ar
    21    16    17   ar
    22     1     2   am
    23     2     3    2
    24     2    25    1
    25    25    26    1
    26    26    27   ar
    27    27    28   ar
    28    28    29    1
    29    28    30   ar
    30    30    31    2
    31    30    32   ar
    32    32    33   ar
    33    33    34    1
    34    34    35    1
    35    35    36    1
    36    36    37   ar
    37    37    38   ar
    38    38    39   ar
    39    39    40    1
    40    39    41   ar
    41    41    42   ar
    42    17    12   ar
    43    33    26   ar
    44    42    36   ar
    45    24    18   ar
@<TRIPOS>MOLECULE
*****
 42 45 0 0 0
SMALL
GASTEIGER

@<TRIPOS>ATOM
      1 N          61.4888   86.8462   11.5902 N.am    1  UNL1       -0.2724
      2 C          62.2735   85.6330   11.9932 C.2     1  UNL1        0.2491
      3 O          61.8794   84.2801   11.4794 O.2     1  UNL1       -0.2727
      4 C          61.8829   88.1992   12.1041 C.3     1  UNL1        0.1111
      5 C          63.0920   88.8901   11.5468 C.3     1  UNL1        0.0939
      6 N          63.3531   90.3294   11.8789 N.3     1  UNL1       -0.2712
      7 C          64.8352   90.7540   13.9700 C.3     1  UNL1        0.0188
      8 C          63.4880   90.7562   13.3106 C.3     1  UNL1        0.0722
      9 C          63.4791   91.3419   10.7793 C.3     1  UNL1        0.0722
     10 C          64.7161   92.1838   10.6733 C.3     1  UNL1        0.0188
     11 C          60.3098   86.7063   10.6734 C.3     1  UNL1        0.1202
     12 C          60.1641   87.6217    9.4940 C.ar    1  UNL1       -0.0023
     13 C          60.4159   89.0921    9.6503 C.ar    1  UNL1       -0.0026
     14 C          60.2702   90.0074    8.4709 C.ar    1  UNL1       -0.0003
     15 C          59.8727   89.4523    7.1353 C.ar    1  UNL1       -0.0000
     16 C          59.6209   87.9819    6.9791 C.ar    1  UNL1       -0.0003
     17 C          59.7666   87.0666    8.1584 C.ar    1  UNL1       -0.0026
     18 C          59.7270   90.3677    5.9559 C.ar    1  UNL1        0.0001
     19 C          58.3741   90.8928    5.5767 C.ar    1  UNL1        0.0009
     20 C          58.2284   91.8082    4.3973 C.ar    1  UNL1        0.0114
     21 C          59.4357   92.1985    3.5972 C.ar    1  UNL1        0.0577
     22 CL         59.2900   93.1138    2.4179 Cl      1  UNL1       -0.0822
     23 C          60.7886   91.6733    3.9765 C.ar    1  UNL1        0.0114
     24 C          60.9343   90.7580    5.1558 C.ar    1  UNL1        0.0009
     25 C          63.4525   85.7729   12.9101 C.3     1  UNL1        0.1934
     26 N          63.2390   86.0281   14.3727 N.ar    1  UNL1       -0.2979
     27 C          63.4029   87.4135   14.9241 C.ar    1  UNL1        0.0782
     28 C          63.1894   87.6687   16.3867 C.ar    1  UNL1        0.0532
     29 C          63.3533   89.0540   16.9381 C.3     1  UNL1        0.0377
     30 C          62.8120   86.5385   17.2980 C.ar    1  UNL1        0.2783
     31 O          62.5985   86.7937   18.7606 O.2     1  UNL1       -0.2654
     32 N          62.6481   85.1532   16.7466 N.ar    1  UNL1       -0.1847
     33 C          62.8616   84.8980   15.2839 C.ar    1  UNL1        0.1750
     34 S          62.6977   83.5127   14.7326 S.3     1  UNL1       -0.0724
     35 C          63.8521   82.8324   14.0582 C.3     1  UNL1        0.0913
     36 C          63.6151   81.9703   12.8539 C.ar    1  UNL1       -0.0108
     37 C          64.1165   82.4063   11.5091 C.ar    1  UNL1       -0.0011
     38 C          63.8795   81.5442   10.3046 C.ar    1  UNL1        0.0293
     39 C          63.1411   80.2461   10.4450 C.ar    1  UNL1        0.1401
     40 F          62.9041   79.3840    9.2407 F       1  UNL1       -0.2042
     41 C          62.6396   79.8102   11.7899 C.ar    1  UNL1        0.0293
     42 C          62.8766   80.6723   12.9943 C.ar    1  UNL1       -0.0011
@<TRIPOS>BOND
     1     7     8    1
     2     8     6    1
     3     6     9    1
     4     9    10    1
     5     6     5    1
     6     5     4    1
     7     4     1    1
     8     1    11    1
     9    11    12    1
    10    12    13   ar
    11    13    14   ar
    12    14    15   ar
    13    15    18    1
    14    18    19   ar
    15    19    20   ar
    16    20    21   ar
    17    21    22    1
    18    21    23   ar
    19    23    24   ar
    20    15    16   ar
    21    16    17   ar
    22     1     2   am
    23     2     3    2
    24     2    25    1
    25    25    26    1
    26    26    27   ar
    27    27    28   ar
    28    28    29    1
    29    28    30   ar
    30    30    31    2
    31    30    32   ar
    32    32    33   ar
    33    33    34    1
    34    34    35    1
    35    35    36    1
    36    36    37   ar
    37    37    38   ar
    38    38    39   ar
    39    39    40    1
    40    39    41   ar
    41    41    42   ar
    42    17    12   ar
    43    33    26   ar
    44    42    36   ar
    45    24    18   ar
