@<TRIPOS>MOLECULE
*****
 25 28 0 0 0
SMALL
GASTEIGER

@<TRIPOS>ATOM
      1 C          61.3705   86.6538    9.4462 C.3     1  UNL1        0.0286
      2 C          60.3871   86.3126    8.3661 C.3     1  UNL1        0.0216
      3 C          59.5441   87.3904    7.7515 C.3     1  UNL1        0.0689
      4 N          59.6845   88.8094    8.2170 N.3     1  UNL1       -0.2973
      5 C          60.6678   89.1506    9.2970 C.3     1  UNL1        0.0726
      6 C          61.5108   88.0728    9.9117 C.3     1  UNL1        0.0635
      7 H          58.7664   89.1017    8.5516 H       1  UNL1        0.1232
      8 F          64.7423   82.3428   11.9048 F       1  UNL1       -0.2042
      9 C          63.8994   83.4205   11.2901 C.ar    1  UNL1        0.1401
     10 C          63.9693   83.6771    9.8139 C.ar    1  UNL1        0.0293
     11 C          63.1264   84.7549    9.1993 C.ar    1  UNL1       -0.0020
     12 C          62.2135   85.5760   10.0608 C.ar    1  UNL1       -0.0222
     13 C          62.1435   85.3194   11.5371 C.ar    1  UNL1       -0.0020
     14 C          62.9864   84.2416   12.1517 C.ar    1  UNL1        0.0293
     15 C          62.4941   88.4141   10.9917 C.3     1  UNL1        0.2070
     16 O          62.2849   89.6347   11.8382 O.3     1  UNL1       -0.4753
     17 C          63.3578   90.6794   11.9260 C.ar    1  UNL1        0.1418
     18 C          63.8417   91.3639   10.6822 C.ar    1  UNL1        0.0402
     19 C          64.9145   92.4085   10.7700 C.ar    1  UNL1        0.0433
     20 C          65.5034   92.7687   12.1017 C.ar    1  UNL1        0.1766
     21 C          65.0194   92.0842   13.3456 C.ar    1  UNL1        0.1794
     22 C          63.9466   91.0396   13.2578 C.ar    1  UNL1        0.0770
     23 O          65.7823   92.6441   14.5095 O.3     1  UNL1       -0.4345
     24 C          66.7377   93.6746   13.9849 C.3     1  UNL1        0.4294
     25 O          66.5653   93.7516   12.4968 O.3     1  UNL1       -0.4346
@<TRIPOS>BOND
     1     8     9    1
     2     9    10   ar
     3    10    11   ar
     4    11    12   ar
     5     1    12    1
     6     1     2    1
     7     2     3    1
     8     3     4    1
     9     4     5    1
    10     5     6    1
    11     6    15    1
    12    15    16    1
    13    16    17    1
    14    17    18   ar
    15    18    19   ar
    16    19    20   ar
    17    20    21   ar
    18    21    22   ar
    19    21    23    1
    20    23    24    1
    21    24    25    1
    22    12    13   ar
    23    13    14   ar
    24    14     9   ar
    25     6     1    1
    26    22    17   ar
    27    25    20    1
    28     4     7    1
@<TRIPOS>MOLECULE
*****
 25 28 0 0 0
SMALL
GASTEIGER

@<TRIPOS>ATOM
      1 C          61.0430   87.7355    9.2005 C.3     1  UNL1        0.0286
      2 C          59.6422   88.1427    8.8512 C.3     1  UNL1        0.0216
      3 C          58.8139   87.2800    7.9459 C.3     1  UNL1        0.0689
      4 N          59.3864   86.0099    7.3898 N.3     1  UNL1       -0.2973
      5 C          60.7872   85.6027    7.7391 C.3     1  UNL1        0.0726
      6 C          61.6155   86.4654    8.6444 C.3     1  UNL1        0.0635
      7 H          59.3477   86.0895    6.3737 H       1  UNL1        0.1232
      8 F          64.3561   91.1863   12.8218 F       1  UNL1       -0.2042
      9 C          63.5279   90.3237   11.9165 C.ar    1  UNL1        0.1401
     10 C          63.0597   90.8562   10.5946 C.ar    1  UNL1        0.0293
     11 C          62.2314   89.9935    9.6893 C.ar    1  UNL1       -0.0020
     12 C          61.8713   88.5982   10.1058 C.ar    1  UNL1       -0.0222
     13 C          62.3394   88.0656   11.4277 C.ar    1  UNL1       -0.0020
     14 C          63.1677   88.9283   12.3330 C.ar    1  UNL1        0.0293
     15 C          63.0162   86.0581    8.9936 C.3     1  UNL1        0.2070
     16 O          63.3499   84.6083    9.1855 O.3     1  UNL1       -0.4753
     17 C          63.4436   84.0369   10.5693 C.ar    1  UNL1        0.1418
     18 C          64.2339   82.7855   10.8121 C.ar    1  UNL1        0.0402
     19 C          64.3276   82.2142   12.1959 C.ar    1  UNL1        0.0433
     20 C          63.6307   82.8943   13.3368 C.ar    1  UNL1        0.1766
     21 C          62.8403   84.1458   13.0940 C.ar    1  UNL1        0.1794
     22 C          62.7467   84.7172   11.7103 C.ar    1  UNL1        0.0770
     23 O          62.2648   84.5924   14.4053 O.3     1  UNL1       -0.4345
     24 C          62.6996   83.6168   15.4585 C.3     1  UNL1        0.4294
     25 O          63.5438   82.5674   14.7982 O.3     1  UNL1       -0.4346
@<TRIPOS>BOND
     1     8     9    1
     2     9    10   ar
     3    10    11   ar
     4    11    12   ar
     5     1    12    1
     6     1     2    1
     7     2     3    1
     8     3     4    1
     9     4     5    1
    10     5     6    1
    11     6    15    1
    12    15    16    1
    13    16    17    1
    14    17    18   ar
    15    18    19   ar
    16    19    20   ar
    17    20    21   ar
    18    21    22   ar
    19    21    23    1
    20    23    24    1
    21    24    25    1
    22    12    13   ar
    23    13    14   ar
    24    14     9   ar
    25     6     1    1
    26    22    17   ar
    27    25    20    1
    28     4     7    1
@<TRIPOS>MOLECULE
*****
 25 28 0 0 0
SMALL
GASTEIGER

@<TRIPOS>ATOM
      1 C          62.9918   82.8234   12.2740 C.3     1  UNL1        0.0286
      2 C          62.4121   81.5023   11.8631 C.3     1  UNL1        0.0216
      3 C          62.6303   80.2890   12.7178 C.3     1  UNL1        0.0689
      4 N          63.4283   80.3969   13.9834 N.3     1  UNL1       -0.2973
      5 C          64.0079   81.7179   14.3943 C.3     1  UNL1        0.0726
      6 C          63.7897   82.9312   13.5396 C.3     1  UNL1        0.0635
      7 H          64.2096   79.7472   13.8952 H       1  UNL1        0.1232
      8 F          62.1189   87.6762    8.8554 F       1  UNL1       -0.2042
      9 C          62.3371   86.4631    9.7101 C.ar    1  UNL1        0.1401
     10 C          61.8525   86.4486   11.1296 C.ar    1  UNL1        0.0293
     11 C          62.0708   85.2353   11.9842 C.ar    1  UNL1       -0.0020
     12 C          62.7736   84.0366   11.4194 C.ar    1  UNL1       -0.0222
     13 C          63.2582   84.0510    9.9998 C.ar    1  UNL1       -0.0020
     14 C          63.0400   85.2642    9.1452 C.ar    1  UNL1        0.0293
     15 C          64.3694   84.2522   13.9506 C.3     1  UNL1        0.2070
     16 O          64.2183   84.7303   15.3643 O.3     1  UNL1       -0.4753
     17 C          63.9547   86.1808   15.6413 C.ar    1  UNL1        0.1418
     18 C          63.2067   86.5844   16.8771 C.ar    1  UNL1        0.0402
     19 C          62.9431   88.0348   17.1542 C.ar    1  UNL1        0.0433
     20 C          63.4276   89.0817   16.1953 C.ar    1  UNL1        0.1766
     21 C          64.1757   88.6781   14.9594 C.ar    1  UNL1        0.1794
     22 C          64.4393   87.2276   14.6824 C.ar    1  UNL1        0.0770
     23 O          64.5282   89.9245   14.2031 O.3     1  UNL1       -0.4345
     24 C          63.9979   91.0985   14.9716 C.3     1  UNL1        0.4294
     25 O          63.3177   90.5776   16.2029 O.3     1  UNL1       -0.4346
@<TRIPOS>BOND
     1     8     9    1
     2     9    10   ar
     3    10    11   ar
     4    11    12   ar
     5     1    12    1
     6     1     2    1
     7     2     3    1
     8     3     4    1
     9     4     5    1
    10     5     6    1
    11     6    15    1
    12    15    16    1
    13    16    17    1
    14    17    18   ar
    15    18    19   ar
    16    19    20   ar
    17    20    21   ar
    18    21    22   ar
    19    21    23    1
    20    23    24    1
    21    24    25    1
    22    12    13   ar
    23    13    14   ar
    24    14     9   ar
    25     6     1    1
    26    22    17   ar
    27    25    20    1
    28     4     7    1
@<TRIPOS>MOLECULE
*****
 25 28 0 0 0
SMALL
GASTEIGER

@<TRIPOS>ATOM
      1 C          63.5097   84.4137   12.4083 C.3     1  UNL1        0.0286
      2 C          64.3992   83.2541   12.0705 C.3     1  UNL1        0.0216
      3 C          64.5281   82.7972   10.6476 C.3     1  UNL1        0.0689
      4 N          63.7673   83.5000    9.5624 N.3     1  UNL1       -0.2973
      5 C          62.8779   84.6596    9.9002 C.3     1  UNL1        0.0726
      6 C          62.7490   85.1165   11.3231 C.3     1  UNL1        0.0635
      7 H          63.1786   82.7983    9.1136 H       1  UNL1        0.1232
      8 F          62.9942   86.2412   18.0998 F       1  UNL1       -0.2042
      9 C          63.1231   85.7844   16.6770 C.ar    1  UNL1        0.1401
     10 C          64.1486   86.4097   15.7784 C.ar    1  UNL1        0.0293
     11 C          64.2774   85.9528   14.3555 C.ar    1  UNL1       -0.0020
     12 C          63.3808   84.8706   13.8312 C.ar    1  UNL1       -0.0222
     13 C          62.3553   84.2453   14.7297 C.ar    1  UNL1       -0.0020
     14 C          62.2264   84.7021   16.1526 C.ar    1  UNL1        0.0293
     15 C          61.8595   86.2761   11.6609 C.3     1  UNL1        0.2070
     16 O          61.8766   87.5084   10.8058 O.3     1  UNL1       -0.4753
     17 C          62.5943   88.7384   11.2772 C.ar    1  UNL1        0.1418
     18 C          62.6107   89.9710   10.4226 C.ar    1  UNL1        0.0402
     19 C          63.3283   91.2009   10.8940 C.ar    1  UNL1        0.0433
     20 C          64.0295   91.1983   12.2200 C.ar    1  UNL1        0.1766
     21 C          64.0131   89.9657   13.0747 C.ar    1  UNL1        0.1794
     22 C          63.2955   88.7357   12.6033 C.ar    1  UNL1        0.0770
     23 O          64.7870   90.2587   14.3257 O.3     1  UNL1       -0.4345
     24 C          65.2818   91.6724   14.2443 C.3     1  UNL1        0.4294
     25 O          64.8136   92.2531   12.9429 O.3     1  UNL1       -0.4346
@<TRIPOS>BOND
     1     8     9    1
     2     9    10   ar
     3    10    11   ar
     4    11    12   ar
     5     1    12    1
     6     1     2    1
     7     2     3    1
     8     3     4    1
     9     4     5    1
    10     5     6    1
    11     6    15    1
    12    15    16    1
    13    16    17    1
    14    17    18   ar
    15    18    19   ar
    16    19    20   ar
    17    20    21   ar
    18    21    22   ar
    19    21    23    1
    20    23    24    1
    21    24    25    1
    22    12    13   ar
    23    13    14   ar
    24    14     9   ar
    25     6     1    1
    26    22    17   ar
    27    25    20    1
    28     4     7    1
@<TRIPOS>MOLECULE
*****
 25 28 0 0 0
SMALL
GASTEIGER

@<TRIPOS>ATOM
      1 C          64.5488   90.1943   14.0720 C.3     1  UNL1        0.0286
      2 C          65.8070   90.9555   14.3680 C.3     1  UNL1        0.0216
      3 C          66.2483   92.0597   13.4536 C.3     1  UNL1        0.0689
      4 N          65.4313   92.4027   12.2432 N.3     1  UNL1       -0.2973
      5 C          64.1732   91.6415   11.9473 C.3     1  UNL1        0.0726
      6 C          63.7319   90.5373   12.8616 C.3     1  UNL1        0.0635
      7 H          66.0417   92.2886   11.4340 H       1  UNL1        0.1232
      8 F          62.7837   85.7777   17.7295 F       1  UNL1       -0.2042
      9 C          63.2250   86.8817   16.8151 C.ar    1  UNL1        0.1401
     10 C          64.0043   86.5615   15.5741 C.ar    1  UNL1        0.0293
     11 C          64.4456   87.6657   14.6597 C.ar    1  UNL1       -0.0020
     12 C          64.1075   89.0901   14.9864 C.ar    1  UNL1       -0.0222
     13 C          63.3282   89.4104   16.2274 C.ar    1  UNL1       -0.0020
     14 C          62.8870   88.3063   17.1418 C.ar    1  UNL1        0.0293
     15 C          62.4738   89.7761   12.5656 C.3     1  UNL1        0.2070
     16 O          61.6680   90.1051   11.3439 O.3     1  UNL1       -0.4753
     17 C          61.3889   89.0437   10.3213 C.ar    1  UNL1        0.1418
     18 C          60.1158   89.0818    9.5291 C.ar    1  UNL1        0.0402
     19 C          59.8367   88.0205    8.5065 C.ar    1  UNL1        0.0433
     20 C          60.8307   86.9210    8.2762 C.ar    1  UNL1        0.1766
     21 C          62.1038   86.8828    9.0685 C.ar    1  UNL1        0.1794
     22 C          62.3830   87.9442   10.0910 C.ar    1  UNL1        0.0770
     23 O          62.8898   85.6845    8.6254 O.3     1  UNL1       -0.4345
     24 C          62.1024   84.9821    7.5593 C.3     1  UNL1        0.4294
     25 O          60.8298   85.7462    7.3435 O.3     1  UNL1       -0.4346
@<TRIPOS>BOND
     1     8     9    1
     2     9    10   ar
     3    10    11   ar
     4    11    12   ar
     5     1    12    1
     6     1     2    1
     7     2     3    1
     8     3     4    1
     9     4     5    1
    10     5     6    1
    11     6    15    1
    12    15    16    1
    13    16    17    1
    14    17    18   ar
    15    18    19   ar
    16    19    20   ar
    17    20    21   ar
    18    21    22   ar
    19    21    23    1
    20    23    24    1
    21    24    25    1
    22    12    13   ar
    23    13    14   ar
    24    14     9   ar
    25     6     1    1
    26    22    17   ar
    27    25    20    1
    28     4     7    1
@<TRIPOS>MOLECULE
*****
 25 28 0 0 0
SMALL
GASTEIGER

@<TRIPOS>ATOM
      1 C          64.9008   90.5071   14.2027 C.3     1  UNL1        0.0286
      2 C          66.2406   91.0844   14.5517 C.3     1  UNL1        0.0216
      3 C          66.8185   92.1933   13.7231 C.3     1  UNL1        0.0689
      4 N          66.0564   92.7249   12.5455 N.3     1  UNL1       -0.2973
      5 C          64.7167   92.1477   12.1965 C.3     1  UNL1        0.0726
      6 C          64.1388   91.0389   13.0251 C.3     1  UNL1        0.0635
      7 H          66.6531   92.5996   11.7278 H       1  UNL1        0.1232
      8 F          62.5895   86.0717   17.5167 F       1  UNL1       -0.2042
      9 C          63.1673   87.1805   16.6883 C.ar    1  UNL1        0.1401
     10 C          62.9370   88.6095   17.0823 C.ar    1  UNL1        0.0293
     11 C          63.5149   89.7183   16.2537 C.ar    1  UNL1       -0.0020
     12 C          64.3229   89.3983   15.0312 C.ar    1  UNL1       -0.0222
     13 C          64.5532   87.9694   14.6371 C.ar    1  UNL1       -0.0020
     14 C          63.9754   86.8605   15.4657 C.ar    1  UNL1        0.0293
     15 C          62.7991   90.4617   12.6760 C.3     1  UNL1        0.2070
     16 O          62.2641   90.5980   11.2813 O.3     1  UNL1       -0.4753
     17 C          61.7645   89.3884   10.5481 C.ar    1  UNL1        0.1418
     18 C          62.3982   88.0504   10.7891 C.ar    1  UNL1        0.0402
     19 C          61.8986   86.8409   10.0560 C.ar    1  UNL1        0.0433
     20 C          60.7653   86.9694    9.0818 C.ar    1  UNL1        0.1766
     21 C          60.1315   88.3074    8.8407 C.ar    1  UNL1        0.1794
     22 C          60.6311   89.5169    9.5739 C.ar    1  UNL1        0.0770
     23 O          59.0391   88.1274    7.8288 O.3     1  UNL1       -0.4345
     24 C          58.9976   86.6780    7.4444 C.3     1  UNL1        0.4294
     25 O          60.0645   85.9624    8.2188 O.3     1  UNL1       -0.4346
@<TRIPOS>BOND
     1     8     9    1
     2     9    10   ar
     3    10    11   ar
     4    11    12   ar
     5     1    12    1
     6     1     2    1
     7     2     3    1
     8     3     4    1
     9     4     5    1
    10     5     6    1
    11     6    15    1
    12    15    16    1
    13    16    17    1
    14    17    18   ar
    15    18    19   ar
    16    19    20   ar
    17    20    21   ar
    18    21    22   ar
    19    21    23    1
    20    23    24    1
    21    24    25    1
    22    12    13   ar
    23    13    14   ar
    24    14     9   ar
    25     6     1    1
    26    22    17   ar
    27    25    20    1
    28     4     7    1
@<TRIPOS>MOLECULE
*****
 25 28 0 0 0
SMALL
GASTEIGER

@<TRIPOS>ATOM
      1 C          62.8449   84.0485   12.7985 C.3     1  UNL1        0.0286
      2 C          62.3819   82.6728   13.1771 C.3     1  UNL1        0.0216
      3 C          62.5613   82.1814   14.5830 C.3     1  UNL1        0.0689
      4 N          63.2036   83.0658   15.6103 N.3     1  UNL1       -0.2973
      5 C          63.6665   84.4415   15.2317 C.3     1  UNL1        0.0726
      6 C          63.4871   84.9328   13.8259 C.3     1  UNL1        0.0635
      7 H          64.0211   82.5658   15.9596 H       1  UNL1        0.1232
      8 F          62.1276   86.0137    7.1752 F       1  UNL1       -0.2042
      9 C          62.3068   85.5225    8.5810 C.ar    1  UNL1        0.1401
     10 C          61.4636   86.0865    9.6859 C.ar    1  UNL1        0.0293
     11 C          61.6430   85.5951   11.0918 C.ar    1  UNL1       -0.0020
     12 C          62.6655   84.5398   11.3927 C.ar    1  UNL1       -0.0222
     13 C          63.5088   83.9757   10.2878 C.ar    1  UNL1       -0.0020
     14 C          63.3295   84.4671    8.8820 C.ar    1  UNL1        0.0293
     15 C          63.9501   86.3084   13.4474 C.3     1  UNL1        0.2070
     16 O          63.7291   87.4585   14.3848 O.3     1  UNL1       -0.4753
     17 C          64.0900   88.8515   13.9610 C.ar    1  UNL1        0.1418
     18 C          63.4629   89.4490   12.7364 C.ar    1  UNL1        0.0402
     19 C          63.8237   90.8419   12.3126 C.ar    1  UNL1        0.0433
     20 C          64.8116   91.6373   13.1135 C.ar    1  UNL1        0.1766
     21 C          65.4387   91.0398   14.3381 C.ar    1  UNL1        0.1794
     22 C          65.0779   89.6469   14.7619 C.ar    1  UNL1        0.0770
     23 O          66.3731   92.0567   14.9236 O.3     1  UNL1       -0.4345
     24 C          66.3234   93.2827   14.0608 C.3     1  UNL1        0.4294
     25 O          65.3584   93.0235   12.9421 O.3     1  UNL1       -0.4346
@<TRIPOS>BOND
     1     8     9    1
     2     9    10   ar
     3    10    11   ar
     4    11    12   ar
     5     1    12    1
     6     1     2    1
     7     2     3    1
     8     3     4    1
     9     4     5    1
    10     5     6    1
    11     6    15    1
    12    15    16    1
    13    16    17    1
    14    17    18   ar
    15    18    19   ar
    16    19    20   ar
    17    20    21   ar
    18    21    22   ar
    19    21    23    1
    20    23    24    1
    21    24    25    1
    22    12    13   ar
    23    13    14   ar
    24    14     9   ar
    25     6     1    1
    26    22    17   ar
    27    25    20    1
    28     4     7    1
@<TRIPOS>MOLECULE
*****
 25 28 0 0 0
SMALL
GASTEIGER

@<TRIPOS>ATOM
      1 C          62.8748   86.4060   12.2285 C.3     1  UNL1        0.0286
      2 C          63.1504   85.0645   12.8405 C.3     1  UNL1        0.0216
      3 C          63.9709   84.9655   14.0923 C.3     1  UNL1        0.0689
      4 N          64.5158   86.2080   14.7322 N.3     1  UNL1       -0.2973
      5 C          64.2402   87.5494   14.1202 C.3     1  UNL1        0.0726
      6 C          63.4197   87.6485   12.8684 C.3     1  UNL1        0.0635
      7 H          65.5297   86.1019   14.7649 H       1  UNL1        0.1232
      8 F          59.5930   86.8024    7.2214 F       1  UNL1       -0.2042
      9 C          60.4135   86.7033    8.4731 C.ar    1  UNL1        0.1401
     10 C          61.7012   85.9341    8.4669 C.ar    1  UNL1        0.0293
     11 C          62.5217   85.8350    9.7187 C.ar    1  UNL1       -0.0020
     12 C          62.0544   86.5051   10.9767 C.ar    1  UNL1       -0.0222
     13 C          60.7666   87.2743   10.9830 C.ar    1  UNL1       -0.0020
     14 C          59.9461   87.3734    9.7311 C.ar    1  UNL1        0.0293
     15 C          63.1442   88.9900   12.2565 C.3     1  UNL1        0.2070
     16 O          63.0165   90.2015   13.1316 O.3     1  UNL1       -0.4753
     17 C          64.2051   91.0862   13.3659 C.ar    1  UNL1        0.1418
     18 C          64.7843   91.8798   12.2327 C.ar    1  UNL1        0.0402
     19 C          65.9728   92.7644   12.4670 C.ar    1  UNL1        0.0433
     20 C          66.5821   92.8553   13.8347 C.ar    1  UNL1        0.1766
     21 C          66.0028   92.0616   14.9680 C.ar    1  UNL1        0.1794
     22 C          64.8143   91.1770   14.7337 C.ar    1  UNL1        0.0770
     23 O          66.8109   92.3519   16.1979 O.3     1  UNL1       -0.4345
     24 C          67.8896   93.3251   15.8247 C.3     1  UNL1        0.4294
     25 O          67.7482   93.6362   14.3641 O.3     1  UNL1       -0.4346
@<TRIPOS>BOND
     1     8     9    1
     2     9    10   ar
     3    10    11   ar
     4    11    12   ar
     5     1    12    1
     6     1     2    1
     7     2     3    1
     8     3     4    1
     9     4     5    1
    10     5     6    1
    11     6    15    1
    12    15    16    1
    13    16    17    1
    14    17    18   ar
    15    18    19   ar
    16    19    20   ar
    17    20    21   ar
    18    21    22   ar
    19    21    23    1
    20    23    24    1
    21    24    25    1
    22    12    13   ar
    23    13    14   ar
    24    14     9   ar
    25     6     1    1
    26    22    17   ar
    27    25    20    1
    28     4     7    1
@<TRIPOS>MOLECULE
*****
 25 28 0 0 0
SMALL
GASTEIGER

@<TRIPOS>ATOM
      1 C          63.0238   82.6303   13.5684 C.3     1  UNL1        0.0286
      2 C          62.6778   81.2866   14.1384 C.3     1  UNL1        0.0216
      3 C          62.5482   80.0983   13.2323 C.3     1  UNL1        0.0689
      4 N          62.7646   80.2536   11.7561 N.3     1  UNL1       -0.2973
      5 C          63.1107   81.5972   11.1862 C.3     1  UNL1        0.0726
      6 C          63.2402   82.7856   12.0923 C.3     1  UNL1        0.0635
      7 H          61.9039   79.9527   11.2991 H       1  UNL1        0.1232
      8 F          63.5422   87.3837   17.1927 F       1  UNL1       -0.2042
      9 C          63.4125   86.1954   16.2867 C.ar    1  UNL1        0.1401
     10 C          62.1949   85.3228   16.3637 C.ar    1  UNL1        0.0293
     11 C          62.0653   84.1344   15.4576 C.ar    1  UNL1       -0.0020
     12 C          63.1534   83.8187   14.4745 C.ar    1  UNL1       -0.0222
     13 C          64.3711   84.6912   14.3975 C.ar    1  UNL1       -0.0020
     14 C          64.5007   85.8796   15.3036 C.ar    1  UNL1        0.0293
     15 C          63.5863   84.1292   11.5222 C.3     1  UNL1        0.2070
     16 O          63.0483   84.5366   10.1825 O.3     1  UNL1       -0.4753
     17 C          62.2479   85.7981   10.0479 C.ar    1  UNL1        0.1418
     18 C          61.4902   86.0741    8.7832 C.ar    1  UNL1        0.0402
     19 C          60.6898   87.3355    8.6484 C.ar    1  UNL1        0.0433
     20 C          60.6471   88.3209    9.7785 C.ar    1  UNL1        0.1766
     21 C          61.4048   88.0450   11.0433 C.ar    1  UNL1        0.1794
     22 C          62.2052   86.7835   11.1780 C.ar    1  UNL1        0.0770
     23 O          61.1761   89.1934   11.9808 O.3     1  UNL1       -0.4345
     24 C          60.2770   90.1791   11.2953 C.3     1  UNL1        0.4294
     25 O          59.9500   89.6400    9.9343 O.3     1  UNL1       -0.4346
@<TRIPOS>BOND
     1     8     9    1
     2     9    10   ar
     3    10    11   ar
     4    11    12   ar
     5     1    12    1
     6     1     2    1
     7     2     3    1
     8     3     4    1
     9     4     5    1
    10     5     6    1
    11     6    15    1
    12    15    16    1
    13    16    17    1
    14    17    18   ar
    15    18    19   ar
    16    19    20   ar
    17    20    21   ar
    18    21    22   ar
    19    21    23    1
    20    23    24    1
    21    24    25    1
    22    12    13   ar
    23    13    14   ar
    24    14     9   ar
    25     6     1    1
    26    22    17   ar
    27    25    20    1
    28     4     7    1
