@<TRIPOS>MOLECULE
*****
 32 35 0 0 0
SMALL
GASTEIGER

@<TRIPOS>ATOM
      1 C          62.0679   87.1503   11.1283 C.2     1  UNL1        0.2408
      2 O          60.6117   87.4350   11.3479 O.2     1  UNL1       -0.2733
      3 N          63.1042   88.1097   11.6338 N.am    1  UNL1       -0.2990
      4 H          64.0600   87.9228   11.4897 H       1  UNL1        0.1498
      5 C          62.9824   84.3398   12.5118 C.2     1  UNL1        0.2528
      6 O          62.6163   85.4125   13.4941 O.2     1  UNL1       -0.2723
      7 N          62.9082   84.6144   11.0390 N.am    1  UNL1       -0.2710
      8 C          63.2412   83.6453    9.9435 C.3     1  UNL1        0.0939
      9 C          63.0267   84.3383    8.6306 C.3     1  UNL1        0.0220
     10 C          62.7296   85.2747    7.4972 C.3     1  UNL1        0.0040
     11 C          62.5611   85.7356    8.9146 C.3     1  UNL1        0.0288
     12 C          62.4878   85.9062   10.4031 C.3     1  UNL1        0.1518
     13 C          63.4228   82.9924   13.0022 C.3     1  UNL1        0.1866
     14 O          64.8701   82.6045   12.9309 O.3     1  UNL1       -0.3758
     15 H          64.9827   81.7088   13.2859 H       1  UNL1        0.2110
     16 C          62.3334   82.8532   14.8171 C.3     1  UNL1        0.0029
     17 C          62.4160   82.0328   13.5640 C.3     1  UNL1        0.0333
     18 C          62.4986   81.2125   12.3109 C.3     1  UNL1        0.0029
     19 C          61.4092   81.0733   14.1258 C.3     1  UNL1        0.0029
     20 C          62.6844   89.3538   12.3590 C.3     1  UNL1        0.1179
     21 C          63.7135   90.3621   12.7763 C.ar    1  UNL1        0.0161
     22 C          64.1403   91.4374   11.8215 C.ar    1  UNL1        0.0103
     23 C          65.1694   92.4457   12.2388 C.ar    1  UNL1        0.0575
     24 CL         65.5962   93.5210   11.2840 Cl      1  UNL1       -0.0823
     25 C          65.7718   92.3787   13.6109 C.ar    1  UNL1        0.0129
     26 C          65.3451   91.3034   14.5657 C.ar    1  UNL1        0.0199
     27 C          64.3159   90.2951   14.1484 C.ar    1  UNL1        0.0839
     28 N          63.8892   89.2199   15.1031 N.ar    1  UNL1       -0.1889
     29 C          63.1322   89.4256   16.3817 C.ar    1  UNL1        0.2258
     30 N          62.9197   88.0829   17.0158 N.ar    1  UNL1       -0.1045
     31 N          63.5453   87.0473   16.1290 N.ar    1  UNL1       -0.0222
     32 N          64.1445   87.7499   14.9470 N.ar    1  UNL1       -0.0385
@<TRIPOS>BOND
     1    16    17    1
     2    17    18    1
     3    17    19    1
     4    17    13    1
     5    13    14    1
     6    13     5    1
     7     5     6    2
     8     5     7   am
     9     7     8    1
    10     9     8    1
    11     9    10    1
    12    11    10    1
    13    11    12    1
    14    12     1    1
    15     1     2    2
    16     1     3   am
    17     3    20    1
    18    20    21    1
    19    21    22   ar
    20    22    23   ar
    21    23    24    1
    22    23    25   ar
    23    25    26   ar
    24    26    27   ar
    25    27    28    1
    26    28    29   ar
    27    29    30   ar
    28    30    31   ar
    29    31    32   ar
    30    12     7    1
    31    27    21   ar
    32    32    28   ar
    33    11     9    1
    34    14    15    1
    35     3     4    1
@<TRIPOS>MOLECULE
*****
 32 35 0 0 0
SMALL
GASTEIGER

@<TRIPOS>ATOM
      1 C          62.4796   85.4753    9.8399 C.2     1  UNL1        0.2408
      2 O          63.3845   85.0118    8.7371 O.2     1  UNL1       -0.2733
      3 N          62.6102   84.8880   11.2140 N.am    1  UNL1       -0.2990
      4 H          62.0163   85.1922   11.9378 H       1  UNL1        0.1498
      5 C          62.2234   88.3527   11.3580 C.2     1  UNL1        0.2528
      6 O          63.3624   87.5060   11.8436 O.2     1  UNL1       -0.2723
      7 N          61.3264   87.8487   10.2665 N.am    1  UNL1       -0.2710
      8 C          60.1541   88.5788    9.6812 C.3     1  UNL1        0.0939
      9 C          59.5473   87.7075    8.6216 C.3     1  UNL1        0.0220
     10 C          59.1692   86.6367    7.6417 C.3     1  UNL1        0.0040
     11 C          60.3447   86.4388    8.5521 C.3     1  UNL1        0.0288
     12 C          61.4442   86.5261    9.5688 C.3     1  UNL1        0.1518
     13 C          61.9815   89.7033   11.9639 C.3     1  UNL1        0.1866
     14 O          60.6373   90.0370   12.5401 O.3     1  UNL1       -0.3758
     15 H          60.6504   90.9424   12.8881 H       1  UNL1        0.2110
     16 C          63.2744   90.4707   13.4604 C.3     1  UNL1        0.0029
     17 C          63.0837   90.7204   11.9937 C.3     1  UNL1        0.0333
     18 C          62.8929   90.9701   10.5270 C.3     1  UNL1        0.0029
     19 C          64.1858   91.7374   12.0235 C.3     1  UNL1        0.0029
     20 C          63.6457   83.8371   11.4853 C.3     1  UNL1        0.1179
     21 C          63.2295   82.4858   11.9859 C.ar    1  UNL1        0.0161
     22 C          63.1395   81.3289   11.0355 C.ar    1  UNL1        0.0103
     23 C          62.7234   79.9775   11.5362 C.ar    1  UNL1        0.0575
     24 CL         62.6333   78.8206   10.5858 Cl      1  UNL1       -0.0823
     25 C          62.3973   79.7832   12.9874 C.ar    1  UNL1        0.0129
     26 C          62.4873   80.9401   13.9378 C.ar    1  UNL1        0.0199
     27 C          62.9035   82.2914   13.4371 C.ar    1  UNL1        0.0839
     28 N          62.9935   83.4484   14.3875 N.ar    1  UNL1       -0.1889
     29 C          64.2453   83.9622   15.0349 C.ar    1  UNL1        0.2258
     30 N          63.8730   85.1261   15.9050 N.ar    1  UNL1       -0.1045
     31 N          62.3911   85.3315   15.7953 N.ar    1  UNL1       -0.0222
     32 N          61.8476   84.2947   14.8575 N.ar    1  UNL1       -0.0385
@<TRIPOS>BOND
     1    16    17    1
     2    17    18    1
     3    17    19    1
     4    17    13    1
     5    13    14    1
     6    13     5    1
     7     5     6    2
     8     5     7   am
     9     7     8    1
    10     9     8    1
    11     9    10    1
    12    11    10    1
    13    11    12    1
    14    12     1    1
    15     1     2    2
    16     1     3   am
    17     3    20    1
    18    20    21    1
    19    21    22   ar
    20    22    23   ar
    21    23    24    1
    22    23    25   ar
    23    25    26   ar
    24    26    27   ar
    25    27    28    1
    26    28    29   ar
    27    29    30   ar
    28    30    31   ar
    29    31    32   ar
    30    12     7    1
    31    27    21   ar
    32    32    28   ar
    33    11     9    1
    34    14    15    1
    35     3     4    1
@<TRIPOS>MOLECULE
*****
 32 35 0 0 0
SMALL
GASTEIGER

@<TRIPOS>ATOM
      1 C          61.3333   88.8888   11.2036 C.2     1  UNL1        0.2408
      2 O          60.3169   89.2512   12.2456 O.2     1  UNL1       -0.2733
      3 N          62.5856   89.7022   11.0626 N.am    1  UNL1       -0.2990
      4 H          63.2527   89.4643   10.3787 H       1  UNL1        0.1498
      5 C          62.6508   85.9219   11.5369 C.2     1  UNL1        0.2528
      6 O          63.0730   86.8991   12.5936 O.2     1  UNL1       -0.2723
      7 N          61.7028   86.3493   10.4558 N.am    1  UNL1       -0.2710
      8 C          61.1939   85.4880    9.3381 C.3     1  UNL1        0.0939
      9 C          60.2738   86.3194    8.4942 C.3     1  UNL1        0.0220
     10 C          59.4230   87.3771    7.8561 C.3     1  UNL1        0.0040
     11 C          60.2140   87.6946    9.0903 C.3     1  UNL1        0.0288
     12 C          61.0972   87.7130   10.3027 C.3     1  UNL1        0.1518
     13 C          63.1766   84.5173   11.5611 C.3     1  UNL1        0.1866
     14 O          63.9314   83.9785   10.3821 O.3     1  UNL1       -0.3758
     15 H          64.1985   83.0632   10.5601 H       1  UNL1        0.2110
     16 C          62.3418   82.5949   11.8888 C.3     1  UNL1        0.0029
     17 C          62.9476   83.6514   12.7644 C.3     1  UNL1        0.0333
     18 C          63.5535   84.7080   13.6400 C.3     1  UNL1        0.0029
     19 C          62.7187   82.7856   13.9677 C.3     1  UNL1        0.0029
     20 C          62.8218   90.8781   11.9636 C.3     1  UNL1        0.1179
     21 C          64.2010   91.4512   12.1028 C.ar    1  UNL1        0.0161
     22 C          64.8697   92.0917   10.9228 C.ar    1  UNL1        0.0103
     23 C          66.2489   92.6648   11.0621 C.ar    1  UNL1        0.0575
     24 CL         66.9176   93.3053    9.8820 Cl      1  UNL1       -0.0823
     25 C          66.9593   92.5973   12.3815 C.ar    1  UNL1        0.0129
     26 C          66.2906   91.9568   13.5615 C.ar    1  UNL1        0.0199
     27 C          64.9114   91.3837   13.4222 C.ar    1  UNL1        0.0839
     28 N          64.2427   90.7432   14.6022 N.ar    1  UNL1       -0.1889
     29 C          64.0422   89.2713   14.8104 C.ar    1  UNL1        0.2258
     30 N          63.3326   89.0805   16.1182 N.ar    1  UNL1       -0.1045
     31 N          63.0946   90.4346   16.7182 N.ar    1  UNL1       -0.0222
     32 N          63.6570   91.4622   15.7813 N.ar    1  UNL1       -0.0385
@<TRIPOS>BOND
     1    16    17    1
     2    17    18    1
     3    17    19    1
     4    17    13    1
     5    13    14    1
     6    13     5    1
     7     5     6    2
     8     5     7   am
     9     7     8    1
    10     9     8    1
    11     9    10    1
    12    11    10    1
    13    11    12    1
    14    12     1    1
    15     1     2    2
    16     1     3   am
    17     3    20    1
    18    20    21    1
    19    21    22   ar
    20    22    23   ar
    21    23    24    1
    22    23    25   ar
    23    25    26   ar
    24    26    27   ar
    25    27    28    1
    26    28    29   ar
    27    29    30   ar
    28    30    31   ar
    29    31    32   ar
    30    12     7    1
    31    27    21   ar
    32    32    28   ar
    33    11     9    1
    34    14    15    1
    35     3     4    1
@<TRIPOS>MOLECULE
*****
 32 35 0 0 0
SMALL
GASTEIGER

@<TRIPOS>ATOM
      1 C          62.6628   89.7758   12.4224 C.2     1  UNL1        0.2408
      2 O          61.6750   90.5287   11.5812 O.2     1  UNL1       -0.2733
      3 N          62.7742   88.2854   12.2950 N.am    1  UNL1       -0.2990
      4 H          63.4226   87.7913   12.8471 H       1  UNL1        0.1498
      5 C          64.9227   92.0011   11.6538 C.2     1  UNL1        0.2528
      6 O          64.2002   91.4311   10.4694 O.2     1  UNL1       -0.2723
      7 N          64.5778   91.5362   13.0377 N.am    1  UNL1       -0.2710
      8 C          65.2111   92.0126   14.3112 C.3     1  UNL1        0.0939
      9 C          64.5638   91.2842   15.4516 C.3     1  UNL1        0.0220
     10 C          63.7484   90.4184   16.3656 C.3     1  UNL1        0.0040
     11 C          63.5304   90.3576   14.8828 C.3     1  UNL1        0.0288
     12 C          63.5390   90.5134   13.3909 C.3     1  UNL1        0.1518
     13 C          65.9901   93.0359   11.4545 C.3     1  UNL1        0.1866
     14 O          65.8589   94.3830   12.1013 O.3     1  UNL1       -0.3758
     15 H          66.6283   94.9277   11.8727 H       1  UNL1        0.2110
     16 C          66.6890   93.6652    9.5531 C.3     1  UNL1        0.0029
     17 C          67.1887   92.7237   10.6084 C.3     1  UNL1        0.0333
     18 C          67.6885   91.7822   11.6638 C.3     1  UNL1        0.0029
     19 C          68.3873   92.4115    9.7623 C.3     1  UNL1        0.0029
     20 C          61.8980   87.5478   11.3264 C.3     1  UNL1        0.1179
     21 C          62.4103   86.3172   10.6386 C.ar    1  UNL1        0.0161
     22 C          62.3728   86.2239    9.1420 C.ar    1  UNL1        0.0103
     23 C          62.8852   84.9932    8.4542 C.ar    1  UNL1        0.0575
     24 CL         62.8477   84.8999    6.9576 Cl      1  UNL1       -0.0823
     25 C          63.4351   83.8560    9.2630 C.ar    1  UNL1        0.0129
     26 C          63.4727   83.9493   10.7597 C.ar    1  UNL1        0.0199
     27 C          62.9603   85.1799   11.4474 C.ar    1  UNL1        0.0839
     28 N          62.9978   85.2733   12.9440 N.ar    1  UNL1       -0.1889
     29 C          62.1848   84.4508   13.8994 C.ar    1  UNL1        0.2258
     30 N          62.5395   84.8748   15.2939 N.ar    1  UNL1       -0.1045
     31 N          63.5717   85.9592   15.2003 N.ar    1  UNL1       -0.0222
     32 N          63.8549   86.2055   13.7481 N.ar    1  UNL1       -0.0385
@<TRIPOS>BOND
     1    16    17    1
     2    17    18    1
     3    17    19    1
     4    17    13    1
     5    13    14    1
     6    13     5    1
     7     5     6    2
     8     5     7   am
     9     7     8    1
    10     9     8    1
    11     9    10    1
    12    11    10    1
    13    11    12    1
    14    12     1    1
    15     1     2    2
    16     1     3   am
    17     3    20    1
    18    20    21    1
    19    21    22   ar
    20    22    23   ar
    21    23    24    1
    22    23    25   ar
    23    25    26   ar
    24    26    27   ar
    25    27    28    1
    26    28    29   ar
    27    29    30   ar
    28    30    31   ar
    29    31    32   ar
    30    12     7    1
    31    27    21   ar
    32    32    28   ar
    33    11     9    1
    34    14    15    1
    35     3     4    1
@<TRIPOS>MOLECULE
*****
 32 35 0 0 0
SMALL
GASTEIGER

@<TRIPOS>ATOM
      1 C          62.0259   89.2680   11.0811 C.2     1  UNL1        0.2408
      2 O          60.9660   90.0475   11.8015 O.2     1  UNL1       -0.2733
      3 N          63.3861   89.8655   10.8743 N.am    1  UNL1       -0.2990
      4 H          64.0817   89.3538   10.4014 H       1  UNL1        0.1498
      5 C          63.0809   86.4650   12.3771 C.2     1  UNL1        0.2528
      6 O          63.5447   87.6887   13.1101 O.2     1  UNL1       -0.2723
      7 N          62.2105   86.6026   11.1632 N.am    1  UNL1       -0.2710
      8 C          61.6721   85.4761   10.3319 C.3     1  UNL1        0.0939
      9 C          60.8545   86.0683    9.2225 C.3     1  UNL1        0.0220
     10 C          60.1172   86.9338    8.2441 C.3     1  UNL1        0.0040
     11 C          60.8875   87.5608    9.3681 C.3     1  UNL1        0.0288
     12 C          61.7255   87.8910   10.5675 C.3     1  UNL1        0.1518
     13 C          63.4875   85.1036   12.8579 C.3     1  UNL1        0.1866
     14 O          63.9828   84.0797   11.8798 O.3     1  UNL1       -0.3758
     15 H          64.2015   83.2610   12.3518 H       1  UNL1        0.2110
     16 C          64.7702   85.3345   14.5316 C.3     1  UNL1        0.0029
     17 C          63.3989   84.7660   14.3167 C.3     1  UNL1        0.0333
     18 C          62.0276   84.1974   14.1018 C.3     1  UNL1        0.0029
     19 C          63.3103   84.4283   15.7755 C.3     1  UNL1        0.0029
     20 C          63.6866   91.2425   11.3878 C.3     1  UNL1        0.1179
     21 C          64.2735   91.4209   12.7566 C.ar    1  UNL1        0.0161
     22 C          63.6075   90.7945   13.9458 C.ar    1  UNL1        0.0103
     23 C          64.1945   90.9730   15.3145 C.ar    1  UNL1        0.0575
     24 CL         63.5285   90.3467   16.5037 Cl      1  UNL1       -0.0823
     25 C          65.4475   91.7779   15.4942 C.ar    1  UNL1        0.0129
     26 C          66.1134   92.4043   14.3050 C.ar    1  UNL1        0.0199
     27 C          65.5265   92.2258   12.9362 C.ar    1  UNL1        0.0839
     28 N          66.1924   92.8521   11.7471 N.ar    1  UNL1       -0.1889
     29 C          65.6826   94.0291   10.9693 C.ar    1  UNL1        0.2258
     30 N          66.6603   94.3159    9.8684 N.ar    1  UNL1       -0.1045
     31 N          67.7744   93.3161    9.9658 N.ar    1  UNL1       -0.0222
     32 N          67.4853   92.4115   11.1268 N.ar    1  UNL1       -0.0385
@<TRIPOS>BOND
     1    16    17    1
     2    17    18    1
     3    17    19    1
     4    17    13    1
     5    13    14    1
     6    13     5    1
     7     5     6    2
     8     5     7   am
     9     7     8    1
    10     9     8    1
    11     9    10    1
    12    11    10    1
    13    11    12    1
    14    12     1    1
    15     1     2    2
    16     1     3   am
    17     3    20    1
    18    20    21    1
    19    21    22   ar
    20    22    23   ar
    21    23    24    1
    22    23    25   ar
    23    25    26   ar
    24    26    27   ar
    25    27    28    1
    26    28    29   ar
    27    29    30   ar
    28    30    31   ar
    29    31    32   ar
    30    12     7    1
    31    27    21   ar
    32    32    28   ar
    33    11     9    1
    34    14    15    1
    35     3     4    1
@<TRIPOS>MOLECULE
*****
 32 35 0 0 0
SMALL
GASTEIGER

@<TRIPOS>ATOM
      1 C          61.8989   85.8785    9.8941 C.2     1  UNL1        0.2408
      2 O          62.9725   85.2238    9.0764 O.2     1  UNL1       -0.2733
      3 N          61.5964   85.3761   11.2747 N.am    1  UNL1       -0.2990
      4 H          60.8917   85.8058   11.8114 H       1  UNL1        0.1498
      5 C          62.0809   88.9770   10.9020 C.2     1  UNL1        0.2528
      6 O          62.9731   88.0366   11.6566 O.2     1  UNL1       -0.2723
      7 N          61.2115   88.4596    9.7945 N.am    1  UNL1       -0.2710
      8 C          60.2731   89.2757    8.9558 C.3     1  UNL1        0.0939
      9 C          59.6094   88.3559    7.9742 C.3     1  UNL1        0.0220
     10 C          59.1207   87.2156    7.1312 C.3     1  UNL1        0.0040
     11 C          60.1377   86.9713    8.2063 C.3     1  UNL1        0.0288
     12 C          61.1278   87.0354    9.3312 C.3     1  UNL1        0.1518
     13 C          62.0582   90.4347   11.2548 C.3     1  UNL1        0.1866
     14 O          60.7557   91.1109   11.5653 O.3     1  UNL1       -0.3758
     15 H          60.9174   92.0449   11.7713 H       1  UNL1        0.2110
     16 C          63.4238   90.9952   12.7782 C.3     1  UNL1        0.0029
     17 C          63.3378   91.2162   11.2970 C.3     1  UNL1        0.0333
     18 C          63.2518   91.4372    9.8159 C.3     1  UNL1        0.0029
     19 C          64.6174   91.9977   11.3393 C.3     1  UNL1        0.0029
     20 C          62.3674   84.2191   11.8377 C.3     1  UNL1        0.1179
     21 C          63.1442   84.3837   13.1103 C.ar    1  UNL1        0.0161
     22 C          63.6859   85.7300   13.4896 C.ar    1  UNL1        0.0103
     23 C          64.4627   85.8944   14.7623 C.ar    1  UNL1        0.0575
     24 CL         65.0045   87.2407   15.1416 Cl      1  UNL1       -0.0823
     25 C          64.6977   84.7125   15.6555 C.ar    1  UNL1        0.0129
     26 C          64.1559   83.3662   15.2762 C.ar    1  UNL1        0.0199
     27 C          63.3792   83.2018   14.0036 C.ar    1  UNL1        0.0839
     28 N          62.8374   81.8555   13.6242 N.ar    1  UNL1       -0.1889
     29 C          61.6330   81.1897   14.2210 C.ar    1  UNL1        0.2258
     30 N          61.4562   79.8612   13.5470 N.ar    1  UNL1       -0.1045
     31 N          62.5514   79.7061   12.5338 N.ar    1  UNL1       -0.0222
     32 N          63.4050   80.9385   12.5815 N.ar    1  UNL1       -0.0385
@<TRIPOS>BOND
     1    16    17    1
     2    17    18    1
     3    17    19    1
     4    17    13    1
     5    13    14    1
     6    13     5    1
     7     5     6    2
     8     5     7   am
     9     7     8    1
    10     9     8    1
    11     9    10    1
    12    11    10    1
    13    11    12    1
    14    12     1    1
    15     1     2    2
    16     1     3   am
    17     3    20    1
    18    20    21    1
    19    21    22   ar
    20    22    23   ar
    21    23    24    1
    22    23    25   ar
    23    25    26   ar
    24    26    27   ar
    25    27    28    1
    26    28    29   ar
    27    29    30   ar
    28    30    31   ar
    29    31    32   ar
    30    12     7    1
    31    27    21   ar
    32    32    28   ar
    33    11     9    1
    34    14    15    1
    35     3     4    1
@<TRIPOS>MOLECULE
*****
 32 35 0 0 0
SMALL
GASTEIGER

@<TRIPOS>ATOM
      1 C          62.3480   86.7929   11.6835 C.2     1  UNL1        0.2408
      2 O          60.9645   87.3722   11.6640 O.2     1  UNL1       -0.2733
      3 N          63.4007   87.3951   12.5662 N.am    1  UNL1       -0.2990
      4 H          64.3088   87.0149   12.5791 H       1  UNL1        0.1498
      5 C          63.1038   83.7986   12.7381 C.2     1  UNL1        0.2528
      6 O          62.8196   84.7788   13.8373 O.2     1  UNL1       -0.2723
      7 N          63.0261   84.2352   11.3052 N.am    1  UNL1       -0.2710
      8 C          63.2822   83.3722   10.1053 C.3     1  UNL1        0.0939
      9 C          63.0931   84.2151    8.8791 C.3     1  UNL1        0.0220
     10 C          62.8394   85.2853    7.8591 C.3     1  UNL1        0.0040
     11 C          62.7201   85.5992    9.3210 C.3     1  UNL1        0.0288
     12 C          62.6787   85.6116   10.8204 C.3     1  UNL1        0.1518
     13 C          63.4656   82.3817   13.0718 C.3     1  UNL1        0.1866
     14 O          64.8938   81.9315   12.9831 O.3     1  UNL1       -0.3758
     15 H          64.9537   80.9954   13.2302 H       1  UNL1        0.2110
     16 C          62.7274   80.5403   12.3206 C.3     1  UNL1        0.0029
     17 C          62.3994   81.4149   13.4942 C.3     1  UNL1        0.0333
     18 C          62.0714   82.2894   14.6679 C.3     1  UNL1        0.0029
     19 C          61.3331   80.4481   13.9167 C.3     1  UNL1        0.0029
     20 C          63.0701   88.5765   13.4294 C.3     1  UNL1        0.1179
     21 C          63.8485   89.8507   13.2869 C.ar    1  UNL1        0.0161
     22 C          64.9684   90.1557   14.2371 C.ar    1  UNL1        0.0103
     23 C          65.7468   91.4300   14.0946 C.ar    1  UNL1        0.0575
     24 CL         66.8666   91.7350   15.0448 Cl      1  UNL1       -0.0823
     25 C          65.4053   92.3992   13.0019 C.ar    1  UNL1        0.0129
     26 C          64.2854   92.0942   12.0517 C.ar    1  UNL1        0.0199
     27 C          63.5070   90.8199   12.1942 C.ar    1  UNL1        0.0839
     28 N          62.3872   90.5149   11.2441 N.ar    1  UNL1       -0.1889
     29 C          62.5312   89.9316    9.8696 C.ar    1  UNL1        0.2258
     30 N          61.1596   89.7958    9.2776 N.ar    1  UNL1       -0.1045
     31 N          60.1679   90.2953   10.2862 N.ar    1  UNL1       -0.0222
     32 N          60.9265   90.7397   11.5015 N.ar    1  UNL1       -0.0385
@<TRIPOS>BOND
     1    16    17    1
     2    17    18    1
     3    17    19    1
     4    17    13    1
     5    13    14    1
     6    13     5    1
     7     5     6    2
     8     5     7   am
     9     7     8    1
    10     9     8    1
    11     9    10    1
    12    11    10    1
    13    11    12    1
    14    12     1    1
    15     1     2    2
    16     1     3   am
    17     3    20    1
    18    20    21    1
    19    21    22   ar
    20    22    23   ar
    21    23    24    1
    22    23    25   ar
    23    25    26   ar
    24    26    27   ar
    25    27    28    1
    26    28    29   ar
    27    29    30   ar
    28    30    31   ar
    29    31    32   ar
    30    12     7    1
    31    27    21   ar
    32    32    28   ar
    33    11     9    1
    34    14    15    1
    35     3     4    1
@<TRIPOS>MOLECULE
*****
 32 35 0 0 0
SMALL
GASTEIGER

@<TRIPOS>ATOM
      1 C          61.5371   89.8901   10.2487 C.2     1  UNL1        0.2408
      2 O          60.6433   90.8680   10.9522 O.2     1  UNL1       -0.2733
      3 N          63.0051   90.1713   10.1237 N.am    1  UNL1       -0.2990
      4 H          63.5917   89.5294    9.6620 H       1  UNL1        0.1498
      5 C          62.1991   86.8502   11.2339 C.2     1  UNL1        0.2528
      6 O          62.9258   87.9129   12.0036 O.2     1  UNL1       -0.2723
      7 N          61.2670   87.2337   10.1230 N.am    1  UNL1       -0.2710
      8 C          60.4756   86.2873    9.2698 C.3     1  UNL1        0.0939
      9 C          59.6821   87.0996    8.2897 C.3     1  UNL1        0.0220
     10 C          59.0255   88.1559    7.4513 C.3     1  UNL1        0.0040
     11 C          59.9832   88.5481    8.5371 C.3     1  UNL1        0.0288
     12 C          60.9627   88.6309    9.6701 C.3     1  UNL1        0.1518
     13 C          62.4044   85.4041   11.5751 C.3     1  UNL1        0.1866
     14 O          61.8899   84.8598   12.8748 O.3     1  UNL1       -0.3758
     15 H          62.1047   83.9159   12.9377 H       1  UNL1        0.2110
     16 C          63.0399   85.5608    9.5573 C.3     1  UNL1        0.0029
     17 C          63.1241   84.5022   10.6167 C.3     1  UNL1        0.0333
     18 C          63.2082   83.4436   11.6761 C.3     1  UNL1        0.0029
     19 C          63.8438   83.6003    9.6583 C.3     1  UNL1        0.0029
     20 C          63.5796   91.4304   10.7023 C.3     1  UNL1        0.1179
     21 C          64.2016   91.4130   12.0671 C.ar    1  UNL1        0.0161
     22 C          63.5710   90.6137   13.1687 C.ar    1  UNL1        0.0103
     23 C          64.1931   90.5964   14.5334 C.ar    1  UNL1        0.0575
     24 CL         63.5624   89.7971   15.6350 Cl      1  UNL1       -0.0823
     25 C          65.4458   91.3783   14.7967 C.ar    1  UNL1        0.0129
     26 C          66.0764   92.1776   13.6951 C.ar    1  UNL1        0.0199
     27 C          65.4543   92.1949   12.3303 C.ar    1  UNL1        0.0839
     28 N          66.0850   92.9942   11.2288 N.ar    1  UNL1       -0.1889
     29 C          67.2094   92.5429   10.3444 C.ar    1  UNL1        0.2258
     30 N          67.5212   93.6549    9.3872 N.ar    1  UNL1       -0.1045
     31 N          66.5896   94.7935    9.6801 N.ar    1  UNL1       -0.0222
     32 N          65.7019   94.3852   10.8182 N.ar    1  UNL1       -0.0385
@<TRIPOS>BOND
     1    16    17    1
     2    17    18    1
     3    17    19    1
     4    17    13    1
     5    13    14    1
     6    13     5    1
     7     5     6    2
     8     5     7   am
     9     7     8    1
    10     9     8    1
    11     9    10    1
    12    11    10    1
    13    11    12    1
    14    12     1    1
    15     1     2    2
    16     1     3   am
    17     3    20    1
    18    20    21    1
    19    21    22   ar
    20    22    23   ar
    21    23    24    1
    22    23    25   ar
    23    25    26   ar
    24    26    27   ar
    25    27    28    1
    26    28    29   ar
    27    29    30   ar
    28    30    31   ar
    29    31    32   ar
    30    12     7    1
    31    27    21   ar
    32    32    28   ar
    33    11     9    1
    34    14    15    1
    35     3     4    1
@<TRIPOS>MOLECULE
*****
 32 35 0 0 0
SMALL
GASTEIGER

@<TRIPOS>ATOM
      1 C          63.3804   89.3524   13.2806 C.2     1  UNL1        0.2408
      2 O          62.6104   89.5852   14.5466 O.2     1  UNL1       -0.2733
      3 N          63.7345   87.9556   12.8642 N.am    1  UNL1       -0.2990
      4 H          64.2400   87.8028   12.0333 H       1  UNL1        0.1498
      5 C          65.5156   91.6734   14.1193 C.2     1  UNL1        0.2528
      6 O          65.2982   90.6332   15.1779 O.2     1  UNL1       -0.2723
      7 N          64.7778   91.5833   12.8165 N.am    1  UNL1       -0.2710
      8 C          64.8919   92.5442   11.6703 C.3     1  UNL1        0.0939
      9 C          63.9809   92.0713   10.5764 C.3     1  UNL1        0.0220
     10 C          63.0035   91.3666    9.6832 C.3     1  UNL1        0.0040
     11 C          63.3039   90.8180   11.0465 C.3     1  UNL1        0.0288
     12 C          63.7964   90.5165   12.4309 C.3     1  UNL1        0.1518
     13 C          66.4709   92.8038   14.3637 C.3     1  UNL1        0.1866
     14 O          66.0251   94.2208   14.1553 O.3     1  UNL1       -0.3758
     15 H          66.7584   94.8233   14.3558 H       1  UNL1        0.2110
     16 C          68.1620   91.8573   13.5010 C.3     1  UNL1        0.0029
     17 C          67.8719   92.5172   14.8164 C.3     1  UNL1        0.0333
     18 C          67.5818   93.1770   16.1319 C.3     1  UNL1        0.0029
     19 C          69.2729   92.2306   15.2691 C.3     1  UNL1        0.0029
     20 C          63.3186   86.7914   13.7139 C.3     1  UNL1        0.1179
     21 C          63.1958   85.4255   13.1063 C.ar    1  UNL1        0.0161
     22 C          63.7877   84.2377   13.8054 C.ar    1  UNL1        0.0103
     23 C          63.6648   82.8718   13.1977 C.ar    1  UNL1        0.0575
     24 CL         64.2566   81.6839   13.8968 Cl      1  UNL1       -0.0823
     25 C          62.9500   82.6937   11.8910 C.ar    1  UNL1        0.0129
     26 C          62.3582   83.8816   11.1920 C.ar    1  UNL1        0.0199
     27 C          62.4811   85.2475   11.7996 C.ar    1  UNL1        0.0839
     28 N          61.8892   86.4353   11.1006 N.ar    1  UNL1       -0.1889
     29 C          62.2816   86.9472    9.7463 C.ar    1  UNL1        0.2258
     30 N          61.4358   88.1481    9.4418 N.ar    1  UNL1       -0.1045
     31 N          60.5208   88.3784   10.6079 N.ar    1  UNL1       -0.0222
     32 N          60.8010   87.3199   11.6331 N.ar    1  UNL1       -0.0385
@<TRIPOS>BOND
     1    16    17    1
     2    17    18    1
     3    17    19    1
     4    17    13    1
     5    13    14    1
     6    13     5    1
     7     5     6    2
     8     5     7   am
     9     7     8    1
    10     9     8    1
    11     9    10    1
    12    11    10    1
    13    11    12    1
    14    12     1    1
    15     1     2    2
    16     1     3   am
    17     3    20    1
    18    20    21    1
    19    21    22   ar
    20    22    23   ar
    21    23    24    1
    22    23    25   ar
    23    25    26   ar
    24    26    27   ar
    25    27    28    1
    26    28    29   ar
    27    29    30   ar
    28    30    31   ar
    29    31    32   ar
    30    12     7    1
    31    27    21   ar
    32    32    28   ar
    33    11     9    1
    34    14    15    1
    35     3     4    1
