@<TRIPOS>MOLECULE
*****
 33 35 0 0 0
SMALL
GASTEIGER

@<TRIPOS>ATOM
      1 C          64.3014   89.3799   14.1224 C.3     1  UNL1        0.1169
      2 C          61.9829   89.8016   10.2888 C.ar    1  UNL1        0.1387
      3 C          62.1855   88.4458   10.8975 C.ar    1  UNL1        0.0366
      4 C          62.9584   88.3052   12.1754 C.ar    1  UNL1        0.0008
      5 C          63.5286   89.5205   12.8445 C.ar    1  UNL1       -0.0001
      6 C          63.3260   90.8763   12.2358 C.ar    1  UNL1        0.0008
      7 C          62.5531   91.0169   10.9580 C.ar    1  UNL1        0.0366
      8 C          60.1299   88.9569    8.6754 C.3     1  UNL1        0.2525
      9 O          61.2101   89.9422    9.0109 O.3     1  UNL1       -0.4714
     10 C          65.1356   90.5213   14.6238 C.ar    1  UNL1       -0.0001
     11 C          64.6214   91.3983   15.7267 C.ar    1  UNL1        0.0008
     12 C          65.4556   92.5397   16.2281 C.ar    1  UNL1        0.0366
     13 C          66.8040   92.8040   15.6267 C.ar    1  UNL1        0.1387
     14 C          67.3183   91.9270   14.5238 C.ar    1  UNL1        0.0366
     15 C          66.4841   90.7856   14.0224 C.ar    1  UNL1        0.0008
     16 O          67.6382   93.9454   16.1281 O.3     1  UNL1       -0.4714
     17 C          69.1181   93.9570   15.8835 C.3     1  UNL1        0.2525
     18 N          64.2401   88.0980   14.8989 N.am    1  UNL1       -0.2972
     19 C          63.2398   87.9384   16.0052 C.2     1  UNL1        0.2430
     20 O          62.3008   89.0607   16.3350 O.2     1  UNL1       -0.2732
     21 H          64.8564   87.3614   14.6824 H       1  UNL1        0.1500
     22 C          63.1784   86.6564   16.7817 C.3     1  UNL1        0.1759
     23 N          62.8299   85.3741   16.0858 N.am    1  UNL1       -0.2931
     24 C          63.7966   84.7595   15.1175 C.2     1  UNL1        0.2462
     25 O          65.1119   85.4272   14.8449 O.2     1  UNL1       -0.2701
     26 H          61.9667   84.9359   16.2647 H       1  UNL1        0.1502
     27 C          63.4481   83.4772   14.4217 C.ar    1  UNL1        0.0535
     28 C          62.2445   82.6928   14.8532 C.ar    1  UNL1        0.0068
     29 C          61.8960   81.4105   14.1574 C.ar    1  UNL1        0.0298
     30 C          62.7510   80.9125   13.0301 C.ar    1  UNL1        0.1401
     31 F          62.4025   79.6302   12.3343 F       1  UNL1       -0.2042
     32 C          63.9546   81.6968   12.5985 C.ar    1  UNL1        0.0298
     33 C          64.3032   82.9792   13.2943 C.ar    1  UNL1        0.0068
@<TRIPOS>BOND
     1     8     9    1
     2     9     2    1
     3     2     3   ar
     4     3     4   ar
     5     4     5   ar
     6     5     1    1
     7     1    18    1
     8    18    19   am
     9    19    20    2
    10    19    22    1
    11    22    23    1
    12    23    24   am
    13    24    25    2
    14    24    27    1
    15    27    28   ar
    16    28    29   ar
    17    29    30   ar
    18    30    31    1
    19    30    32   ar
    20    32    33   ar
    21     1    10    1
    22    10    11   ar
    23    11    12   ar
    24    12    13   ar
    25    13    16    1
    26    16    17    1
    27    13    14   ar
    28    14    15   ar
    29     5     6   ar
    30     6     7   ar
    31     7     2   ar
    32    33    27   ar
    33    15    10   ar
    34    18    21    1
    35    23    26    1
@<TRIPOS>MOLECULE
*****
 33 35 0 0 0
SMALL
GASTEIGER

@<TRIPOS>ATOM
      1 C          64.2961   89.3918   14.1067 C.3     1  UNL1        0.1169
      2 C          66.8076   92.8167   15.5943 C.ar    1  UNL1        0.1387
      3 C          65.4663   92.5475   16.2096 C.ar    1  UNL1        0.0366
      4 C          64.6292   91.4059   15.7137 C.ar    1  UNL1        0.0008
      5 C          65.1333   90.5334   14.6026 C.ar    1  UNL1       -0.0001
      6 C          66.4745   90.8026   13.9873 C.ar    1  UNL1        0.0008
      7 C          67.3116   91.9442   14.4832 C.ar    1  UNL1        0.0366
      8 C          69.1292   93.9483   15.8758 C.3     1  UNL1        0.2525
      9 O          67.6447   93.9583   16.0902 O.3     1  UNL1       -0.4714
     10 C          63.5268   89.5267   12.8262 C.ar    1  UNL1       -0.0001
     11 C          62.9669   88.3073   12.1556 C.ar    1  UNL1        0.0008
     12 C          62.1976   88.4422   10.8750 C.ar    1  UNL1        0.0366
     13 C          61.9882   89.7964   10.2649 C.ar    1  UNL1        0.1387
     14 C          62.5481   91.0158   10.9354 C.ar    1  UNL1        0.0366
     15 C          63.3175   90.8809   12.2161 C.ar    1  UNL1        0.0008
     16 O          61.2189   89.9313    8.9843 O.3     1  UNL1       -0.4714
     17 C          60.1323   88.9510    8.6553 C.3     1  UNL1        0.2525
     18 N          64.2283   88.1153   14.8915 N.am    1  UNL1       -0.2972
     19 C          63.2301   87.9694   16.0015 C.2     1  UNL1        0.2430
     20 O          62.2997   89.1001   16.3269 O.2     1  UNL1       -0.2732
     21 H          64.8389   87.3731   14.6779 H       1  UNL1        0.1500
     22 C          63.1622   86.6928   16.7863 C.3     1  UNL1        0.1759
     23 N          62.8141   85.4066   16.0974 N.am    1  UNL1       -0.2931
     24 C          63.7850   84.7821   15.1396 C.2     1  UNL1        0.2462
     25 O          65.1040   85.4438   14.8707 O.2     1  UNL1       -0.2701
     26 H          61.9484   84.9723   16.2739 H       1  UNL1        0.1502
     27 C          63.4368   83.4959   14.4508 C.ar    1  UNL1        0.0535
     28 C          64.2963   82.9882   13.3312 C.ar    1  UNL1        0.0068
     29 C          63.9482   81.7020   12.6424 C.ar    1  UNL1        0.0298
     30 C          62.7406   80.9236   13.0731 C.ar    1  UNL1        0.1401
     31 F          62.3924   79.6374   12.3842 F       1  UNL1       -0.2042
     32 C          61.8810   81.4313   14.1927 C.ar    1  UNL1        0.0298
     33 C          62.2291   82.7175   14.8815 C.ar    1  UNL1        0.0068
@<TRIPOS>BOND
     1     8     9    1
     2     9     2    1
     3     2     3   ar
     4     3     4   ar
     5     4     5   ar
     6     5     1    1
     7     1    18    1
     8    18    19   am
     9    19    20    2
    10    19    22    1
    11    22    23    1
    12    23    24   am
    13    24    25    2
    14    24    27    1
    15    27    28   ar
    16    28    29   ar
    17    29    30   ar
    18    30    31    1
    19    30    32   ar
    20    32    33   ar
    21     1    10    1
    22    10    11   ar
    23    11    12   ar
    24    12    13   ar
    25    13    16    1
    26    16    17    1
    27    13    14   ar
    28    14    15   ar
    29     5     6   ar
    30     6     7   ar
    31     7     2   ar
    32    33    27   ar
    33    15    10   ar
    34    18    21    1
    35    23    26    1
@<TRIPOS>MOLECULE
*****
 33 35 0 0 0
SMALL
GASTEIGER

@<TRIPOS>ATOM
      1 C          63.0073   87.9169   11.9039 C.3     1  UNL1        0.1169
      2 C          59.9920   88.2924    8.5847 C.ar    1  UNL1        0.1387
      3 C          60.1716   89.4132    9.5652 C.ar    1  UNL1        0.0366
      4 C          61.1767   89.2881   10.6716 C.ar    1  UNL1        0.0008
      5 C          62.0022   88.0420   10.7975 C.ar    1  UNL1       -0.0001
      6 C          61.8227   86.9212    9.8170 C.ar    1  UNL1        0.0008
      7 C          60.8176   87.0464    8.7106 C.ar    1  UNL1        0.0366
      8 C          59.1168   89.5187    6.4681 C.3     1  UNL1        0.2525
      9 O          58.9869   88.4176    7.4783 O.3     1  UNL1       -0.4714
     10 C          63.1708   86.6115   12.6245 C.ar    1  UNL1       -0.0001
     11 C          63.9637   86.5512   13.8964 C.ar    1  UNL1        0.0008
     12 C          64.1272   85.2458   14.6170 C.ar    1  UNL1        0.0366
     13 C          63.4979   84.0008   14.0657 C.ar    1  UNL1        0.1387
     14 C          62.7051   84.0611   12.7938 C.ar    1  UNL1        0.0366
     15 C          62.5416   85.3665   12.0731 C.ar    1  UNL1        0.0008
     16 O          63.6614   82.6954   14.7864 O.3     1  UNL1       -0.4714
     17 C          63.4130   81.4041   14.0649 C.3     1  UNL1        0.2525
     18 N          63.8489   89.0970   12.2896 N.am    1  UNL1       -0.2972
     19 C          63.3869   90.0255   13.3733 C.2     1  UNL1        0.2430
     20 O          62.0833   89.7739   14.0713 O.2     1  UNL1       -0.2732
     21 H          64.7046   89.2622   11.8316 H       1  UNL1        0.1500
     22 C          64.2286   91.2057   13.7591 C.3     1  UNL1        0.1759
     23 N          64.6572   92.1944   12.7156 N.am    1  UNL1       -0.2931
     24 C          66.1161   92.4531   12.4819 C.2     1  UNL1        0.2462
     25 O          67.1464   91.7231   13.2916 O.2     1  UNL1       -0.2701
     26 H          63.9809   92.6735   12.1842 H       1  UNL1        0.1502
     27 C          66.5447   93.4417   11.4384 C.ar    1  UNL1        0.0535
     28 C          66.2263   94.8976   11.6088 C.ar    1  UNL1        0.0068
     29 C          66.6549   95.8862   10.5653 C.ar    1  UNL1        0.0298
     30 C          67.4019   95.4190    9.3513 C.ar    1  UNL1        0.1401
     31 F          67.8305   96.4076    8.3078 F       1  UNL1       -0.2042
     32 C          67.7203   93.9631    9.1809 C.ar    1  UNL1        0.0298
     33 C          67.2917   92.9744   10.2244 C.ar    1  UNL1        0.0068
@<TRIPOS>BOND
     1     8     9    1
     2     9     2    1
     3     2     3   ar
     4     3     4   ar
     5     4     5   ar
     6     5     1    1
     7     1    18    1
     8    18    19   am
     9    19    20    2
    10    19    22    1
    11    22    23    1
    12    23    24   am
    13    24    25    2
    14    24    27    1
    15    27    28   ar
    16    28    29   ar
    17    29    30   ar
    18    30    31    1
    19    30    32   ar
    20    32    33   ar
    21     1    10    1
    22    10    11   ar
    23    11    12   ar
    24    12    13   ar
    25    13    16    1
    26    16    17    1
    27    13    14   ar
    28    14    15   ar
    29     5     6   ar
    30     6     7   ar
    31     7     2   ar
    32    33    27   ar
    33    15    10   ar
    34    18    21    1
    35    23    26    1
@<TRIPOS>MOLECULE
*****
 33 35 0 0 0
SMALL
GASTEIGER

@<TRIPOS>ATOM
      1 C          63.0305   87.9473   11.9287 C.3     1  UNL1        0.1169
      2 C          63.4722   84.0423   14.1207 C.ar    1  UNL1        0.1387
      3 C          62.6813   84.1024   12.8477 C.ar    1  UNL1        0.0366
      4 C          62.5341   85.4041   12.1170 C.ar    1  UNL1        0.0008
      5 C          63.1777   86.6456   12.6594 C.ar    1  UNL1       -0.0001
      6 C          63.9686   86.5855   13.9324 C.ar    1  UNL1        0.0008
      7 C          64.1159   85.2838   14.6631 C.ar    1  UNL1        0.0366
      8 C          63.1551   81.4653   14.2128 C.3     1  UNL1        0.2525
      9 O          63.6194   82.7406   14.8514 O.3     1  UNL1       -0.4714
     10 C          62.0198   88.0796   10.8283 C.ar    1  UNL1       -0.0001
     11 C          61.9873   87.0748    9.7149 C.ar    1  UNL1        0.0008
     12 C          60.9766   87.2071    8.6146 C.ar    1  UNL1        0.0366
     13 C          59.9982   88.3440    8.6275 C.ar    1  UNL1        0.1387
     14 C          60.0306   89.3488    9.7407 C.ar    1  UNL1        0.0366
     15 C          61.0414   89.2166   10.8412 C.ar    1  UNL1        0.0008
     16 O          58.9874   88.4763    7.5270 O.3     1  UNL1       -0.4714
     17 C          59.2008   89.4753    6.4287 C.3     1  UNL1        0.2525
     18 N          63.8940   89.1168   12.2983 N.am    1  UNL1       -0.2972
     19 C          63.4651   90.0498   13.3917 C.2     1  UNL1        0.2430
     20 O          62.1728   89.8134   14.1154 O.2     1  UNL1       -0.2732
     21 H          64.7423   89.2720   11.8233 H       1  UNL1        0.1500
     22 C          64.3287   91.2193   13.7614 C.3     1  UNL1        0.1759
     23 N          64.7235   92.2201   12.7161 N.am    1  UNL1       -0.2931
     24 C          66.1739   92.5016   12.4571 C.2     1  UNL1        0.2462
     25 O          67.2296   91.7822   13.2434 O.2     1  UNL1       -0.2701
     26 H          64.0307   92.6923   12.2001 H       1  UNL1        0.1502
     27 C          66.5687   93.5024   11.4119 C.ar    1  UNL1        0.0535
     28 C          66.2649   94.9573   11.6139 C.ar    1  UNL1        0.0068
     29 C          66.6597   95.9581   10.5687 C.ar    1  UNL1        0.0298
     30 C          67.3583   95.5040    9.3214 C.ar    1  UNL1        0.1401
     31 F          67.7531   96.5048    8.2762 F       1  UNL1       -0.2042
     32 C          67.6621   94.0490    9.1193 C.ar    1  UNL1        0.0298
     33 C          67.2673   93.0482   10.1646 C.ar    1  UNL1        0.0068
@<TRIPOS>BOND
     1     8     9    1
     2     9     2    1
     3     2     3   ar
     4     3     4   ar
     5     4     5   ar
     6     5     1    1
     7     1    18    1
     8    18    19   am
     9    19    20    2
    10    19    22    1
    11    22    23    1
    12    23    24   am
    13    24    25    2
    14    24    27    1
    15    27    28   ar
    16    28    29   ar
    17    29    30   ar
    18    30    31    1
    19    30    32   ar
    20    32    33   ar
    21     1    10    1
    22    10    11   ar
    23    11    12   ar
    24    12    13   ar
    25    13    16    1
    26    16    17    1
    27    13    14   ar
    28    14    15   ar
    29     5     6   ar
    30     6     7   ar
    31     7     2   ar
    32    33    27   ar
    33    15    10   ar
    34    18    21    1
    35    23    26    1
@<TRIPOS>MOLECULE
*****
 33 35 0 0 0
SMALL
GASTEIGER

@<TRIPOS>ATOM
      1 C          64.4847   90.2695   13.9085 C.3     1  UNL1        0.1169
      2 C          63.4287   86.6038   16.2954 C.ar    1  UNL1        0.1387
      3 C          63.0866   87.9660   16.8221 C.ar    1  UNL1        0.0366
      4 C          63.4386   89.1879   16.0264 C.ar    1  UNL1        0.0008
      5 C          64.1327   89.0476   14.7041 C.ar    1  UNL1       -0.0001
      6 C          64.4748   87.6855   14.1775 C.ar    1  UNL1        0.0008
      7 C          64.1228   86.4636   14.9731 C.ar    1  UNL1        0.0366
      8 C          62.6327   84.1325   16.3898 C.3     1  UNL1        0.2525
      9 O          63.0768   85.3819   17.0911 O.3     1  UNL1       -0.4714
     10 C          65.4579   91.2689   14.4599 C.ar    1  UNL1       -0.0001
     11 C          65.2182   91.8852   15.8063 C.ar    1  UNL1        0.0008
     12 C          66.1914   92.8846   16.3577 C.ar    1  UNL1        0.0366
     13 C          67.4043   93.2678   15.5627 C.ar    1  UNL1        0.1387
     14 C          67.6440   92.6516   14.2163 C.ar    1  UNL1        0.0366
     15 C          66.6708   91.6521   13.6649 C.ar    1  UNL1        0.0008
     16 O          68.3775   94.2672   16.1142 O.3     1  UNL1       -0.4714
     17 C          69.8521   94.0493   15.9468 C.3     1  UNL1        0.2525
     18 N          63.8635   90.4921   12.5615 N.am    1  UNL1       -0.2972
     19 C          62.3868   90.3047   12.3763 C.2     1  UNL1        0.2430
     20 O          61.5313   89.8948   13.5382 O.2     1  UNL1       -0.2732
     21 H          64.4250   90.7611   11.7988 H       1  UNL1        0.1500
     22 C          61.7656   90.5272   11.0292 C.3     1  UNL1        0.1759
     23 N          61.8560   89.4624    9.9765 N.am    1  UNL1       -0.2931
     24 C          61.1636   88.1473   10.1786 C.2     1  UNL1        0.2462
     25 O          60.3807   87.8969   11.4334 O.2     1  UNL1       -0.2701
     26 H          62.3698   89.6268    9.1530 H       1  UNL1        0.1502
     27 C          61.2539   87.0825    9.1259 C.ar    1  UNL1        0.0535
     28 C          62.5337   86.3240    8.9343 C.ar    1  UNL1        0.0068
     29 C          62.6241   85.2593    7.8817 C.ar    1  UNL1        0.0298
     30 C          61.4347   84.9530    7.0206 C.ar    1  UNL1        0.1401
     31 F          61.5251   83.8883    5.9679 F       1  UNL1       -0.2042
     32 C          60.1548   85.7116    7.2121 C.ar    1  UNL1        0.0298
     33 C          60.0645   86.7763    8.2648 C.ar    1  UNL1        0.0068
@<TRIPOS>BOND
     1     8     9    1
     2     9     2    1
     3     2     3   ar
     4     3     4   ar
     5     4     5   ar
     6     5     1    1
     7     1    18    1
     8    18    19   am
     9    19    20    2
    10    19    22    1
    11    22    23    1
    12    23    24   am
    13    24    25    2
    14    24    27    1
    15    27    28   ar
    16    28    29   ar
    17    29    30   ar
    18    30    31    1
    19    30    32   ar
    20    32    33   ar
    21     1    10    1
    22    10    11   ar
    23    11    12   ar
    24    12    13   ar
    25    13    16    1
    26    16    17    1
    27    13    14   ar
    28    14    15   ar
    29     5     6   ar
    30     6     7   ar
    31     7     2   ar
    32    33    27   ar
    33    15    10   ar
    34    18    21    1
    35    23    26    1
@<TRIPOS>MOLECULE
*****
 33 35 0 0 0
SMALL
GASTEIGER

@<TRIPOS>ATOM
      1 C          63.7711   89.1972   12.9618 C.3     1  UNL1        0.1169
      2 C          66.2086   92.8374   13.9904 C.ar    1  UNL1        0.1387
      3 C          66.0917   91.7107   14.9737 C.ar    1  UNL1        0.0366
      4 C          65.2792   90.4973   14.6308 C.ar    1  UNL1        0.0008
      5 C          64.5836   90.4106   13.3047 C.ar    1  UNL1       -0.0001
      6 C          64.7006   91.5373   12.3214 C.ar    1  UNL1        0.0008
      7 C          65.5131   92.7507   12.6643 C.ar    1  UNL1        0.0366
      8 C          68.0662   93.9748   15.4065 C.3     1  UNL1        0.2525
      9 O          67.0211   94.0508   14.3332 O.3     1  UNL1       -0.4714
     10 C          62.6956   89.2846   11.9199 C.ar    1  UNL1       -0.0001
     11 C          61.4956   90.1543   12.1519 C.ar    1  UNL1        0.0008
     12 C          60.4201   90.2417   11.1100 C.ar    1  UNL1        0.0366
     13 C          60.5445   89.4595    9.8361 C.ar    1  UNL1        0.1387
     14 C          61.7444   88.5899    9.6042 C.ar    1  UNL1        0.0366
     15 C          62.8200   88.5024   10.6461 C.ar    1  UNL1        0.0008
     16 O          59.4689   89.5470    8.7942 O.3     1  UNL1       -0.4714
     17 C          59.4364   88.5600    7.6652 C.3     1  UNL1        0.2525
     18 N          64.0341   87.8964   13.6609 N.am    1  UNL1       -0.2972
     19 C          63.7793   87.7716   15.1338 C.2     1  UNL1        0.2430
     20 O          63.2614   88.9475   15.9077 O.2     1  UNL1       -0.2732
     21 H          64.3740   87.1246   13.1530 H       1  UNL1        0.1500
     22 C          64.0423   86.4707   15.8328 C.3     1  UNL1        0.1759
     23 N          64.0153   85.1853   15.0602 N.am    1  UNL1       -0.2931
     24 C          62.7730   84.3448   15.0459 C.2     1  UNL1        0.2462
     25 O          61.5576   84.7898   15.8042 O.2     1  UNL1       -0.2701
     26 H          64.8129   84.8932   14.5625 H       1  UNL1        0.1502
     27 C          62.7459   83.0594   14.2733 C.ar    1  UNL1        0.0535
     28 C          61.5632   82.1434   14.3825 C.ar    1  UNL1        0.0068
     29 C          61.5361   80.8580   13.6099 C.ar    1  UNL1        0.0298
     30 C          62.6918   80.4885   12.7280 C.ar    1  UNL1        0.1401
     31 F          62.6648   79.2031   11.9554 F       1  UNL1       -0.2042
     32 C          63.8747   81.4045   12.6187 C.ar    1  UNL1        0.0298
     33 C          63.9017   82.6900   13.3913 C.ar    1  UNL1        0.0068
@<TRIPOS>BOND
     1     8     9    1
     2     9     2    1
     3     2     3   ar
     4     3     4   ar
     5     4     5   ar
     6     5     1    1
     7     1    18    1
     8    18    19   am
     9    19    20    2
    10    19    22    1
    11    22    23    1
    12    23    24   am
    13    24    25    2
    14    24    27    1
    15    27    28   ar
    16    28    29   ar
    17    29    30   ar
    18    30    31    1
    19    30    32   ar
    20    32    33   ar
    21     1    10    1
    22    10    11   ar
    23    11    12   ar
    24    12    13   ar
    25    13    16    1
    26    16    17    1
    27    13    14   ar
    28    14    15   ar
    29     5     6   ar
    30     6     7   ar
    31     7     2   ar
    32    33    27   ar
    33    15    10   ar
    34    18    21    1
    35    23    26    1
@<TRIPOS>MOLECULE
*****
 33 35 0 0 0
SMALL
GASTEIGER

@<TRIPOS>ATOM
      1 C          61.8214   86.9348   11.1141 C.3     1  UNL1        0.1169
      2 C          63.5401   82.9350   12.2533 C.ar    1  UNL1        0.1387
      3 C          63.6320   83.4143   10.8349 C.ar    1  UNL1        0.0366
      4 C          63.0591   84.7476   10.4552 C.ar    1  UNL1        0.0008
      5 C          62.3943   85.6016   11.4938 C.ar    1  UNL1       -0.0001
      6 C          62.3025   85.1223   12.9122 C.ar    1  UNL1        0.0008
      7 C          62.8754   83.7890   13.2919 C.ar    1  UNL1        0.0366
      8 C          63.4025   80.7371   13.6318 C.3     1  UNL1        0.2525
      9 O          64.1130   81.6018   12.6330 O.3     1  UNL1       -0.4714
     10 C          62.5117   88.1966   11.5401 C.ar    1  UNL1       -0.0001
     11 C          63.2771   88.2341   12.8296 C.ar    1  UNL1        0.0008
     12 C          63.9674   89.4958   13.2556 C.ar    1  UNL1        0.0366
     13 C          63.8923   90.7201   12.3921 C.ar    1  UNL1        0.1387
     14 C          63.1269   90.6826   11.1027 C.ar    1  UNL1        0.0366
     15 C          62.4366   89.4208   10.6766 C.ar    1  UNL1        0.0008
     16 O          64.5826   91.9819   12.8182 O.3     1  UNL1       -0.4714
     17 C          65.5596   92.6501   11.8968 C.3     1  UNL1        0.2525
     18 N          60.5582   87.0064   10.3084 N.am    1  UNL1       -0.2972
     19 C          60.5788   86.6597    8.8492 C.2     1  UNL1        0.2430
     20 O          61.8625   86.2414    8.1956 O.2     1  UNL1       -0.2732
     21 H          59.7157   87.2809   10.7373 H       1  UNL1        0.1500
     22 C          59.3155   86.7312    8.0434 C.3     1  UNL1        0.1759
     23 N          59.1935   87.7252    6.9267 N.am    1  UNL1       -0.2931
     24 C          59.4880   89.1745    7.1770 C.2     1  UNL1        0.2462
     25 O          59.9045   89.6299    8.5443 O.2     1  UNL1       -0.2701
     26 H          58.9202   87.4263    6.0293 H       1  UNL1        0.1502
     27 C          59.3661   90.1684    6.0603 C.ar    1  UNL1        0.0535
     28 C          60.5896   90.6137    5.3156 C.ar    1  UNL1        0.0068
     29 C          60.4676   91.6077    4.1988 C.ar    1  UNL1        0.0298
     30 C          59.1221   92.1563    3.8267 C.ar    1  UNL1        0.1401
     31 F          59.0002   93.1503    2.7099 F       1  UNL1       -0.2042
     32 C          57.8985   91.7111    4.5714 C.ar    1  UNL1        0.0298
     33 C          58.0204   90.7171    5.6882 C.ar    1  UNL1        0.0068
@<TRIPOS>BOND
     1     8     9    1
     2     9     2    1
     3     2     3   ar
     4     3     4   ar
     5     4     5   ar
     6     5     1    1
     7     1    18    1
     8    18    19   am
     9    19    20    2
    10    19    22    1
    11    22    23    1
    12    23    24   am
    13    24    25    2
    14    24    27    1
    15    27    28   ar
    16    28    29   ar
    17    29    30   ar
    18    30    31    1
    19    30    32   ar
    20    32    33   ar
    21     1    10    1
    22    10    11   ar
    23    11    12   ar
    24    12    13   ar
    25    13    16    1
    26    16    17    1
    27    13    14   ar
    28    14    15   ar
    29     5     6   ar
    30     6     7   ar
    31     7     2   ar
    32    33    27   ar
    33    15    10   ar
    34    18    21    1
    35    23    26    1
@<TRIPOS>MOLECULE
*****
 33 35 0 0 0
SMALL
GASTEIGER

@<TRIPOS>ATOM
      1 C          61.3977   87.4858   10.6159 C.3     1  UNL1        0.1169
      2 C          59.1802   89.0114    7.0096 C.ar    1  UNL1        0.1387
      3 C          60.0278   89.9467    7.8199 C.ar    1  UNL1        0.0366
      4 C          60.7670   89.4381    9.0220 C.ar    1  UNL1        0.0008
      5 C          60.6585   87.9943    9.4138 C.ar    1  UNL1       -0.0001
      6 C          59.8109   87.0590    8.6034 C.ar    1  UNL1        0.0008
      7 C          59.0717   87.5675    7.4013 C.ar    1  UNL1        0.0366
      8 C          58.4720   90.9812    5.4708 C.3     1  UNL1        0.2525
      9 O          58.4410   89.5199    5.8075 O.3     1  UNL1       -0.4714
     10 C          62.1058   86.1647   10.5575 C.ar    1  UNL1       -0.0001
     11 C          62.2706   85.3464   11.8038 C.ar    1  UNL1        0.0008
     12 C          62.9787   84.0254   11.7454 C.ar    1  UNL1        0.0366
     13 C          63.5219   83.5226   10.4408 C.ar    1  UNL1        0.1387
     14 C          63.3571   84.3408    9.1945 C.ar    1  UNL1        0.0366
     15 C          62.6490   85.6620    9.2528 C.ar    1  UNL1        0.0008
     16 O          64.2300   82.2015   10.3825 O.3     1  UNL1       -0.4714
     17 C          63.4403   80.9263   10.3904 C.3     1  UNL1        0.2525
     18 N          61.4288   88.2983   11.8763 N.am    1  UNL1       -0.2972
     19 C          62.3672   89.4624   11.9953 C.2     1  UNL1        0.2430
     20 O          63.2746   89.8140   10.8538 O.2     1  UNL1       -0.2732
     21 H          60.8333   88.0675   12.6255 H       1  UNL1        0.1500
     22 C          62.3983   90.2749   13.2558 C.3     1  UNL1        0.1759
     23 N          63.5931   91.1254   13.5707 N.am    1  UNL1       -0.2931
     24 C          64.7472   90.5447   14.3329 C.2     1  UNL1        0.2462
     25 O          64.7064   89.1135   14.7803 O.2     1  UNL1       -0.2701
     26 H          63.6199   92.0647   13.2770 H       1  UNL1        0.1502
     27 C          65.9420   91.3952   14.6477 C.ar    1  UNL1        0.0535
     28 C          67.1098   91.4257   13.7068 C.ar    1  UNL1        0.0068
     29 C          68.3046   92.2761   14.0216 C.ar    1  UNL1        0.0298
     30 C          68.3316   93.0961   15.2773 C.ar    1  UNL1        0.1401
     31 F          69.5264   93.9466   15.5922 F       1  UNL1       -0.2042
     32 C          67.1638   93.0656   16.2183 C.ar    1  UNL1        0.0298
     33 C          65.9690   92.2152   15.9035 C.ar    1  UNL1        0.0068
@<TRIPOS>BOND
     1     8     9    1
     2     9     2    1
     3     2     3   ar
     4     3     4   ar
     5     4     5   ar
     6     5     1    1
     7     1    18    1
     8    18    19   am
     9    19    20    2
    10    19    22    1
    11    22    23    1
    12    23    24   am
    13    24    25    2
    14    24    27    1
    15    27    28   ar
    16    28    29   ar
    17    29    30   ar
    18    30    31    1
    19    30    32   ar
    20    32    33   ar
    21     1    10    1
    22    10    11   ar
    23    11    12   ar
    24    12    13   ar
    25    13    16    1
    26    16    17    1
    27    13    14   ar
    28    14    15   ar
    29     5     6   ar
    30     6     7   ar
    31     7     2   ar
    32    33    27   ar
    33    15    10   ar
    34    18    21    1
    35    23    26    1
@<TRIPOS>MOLECULE
*****
 33 35 0 0 0
SMALL
GASTEIGER

@<TRIPOS>ATOM
      1 C          62.6445   85.3621   11.6253 C.3     1  UNL1        0.1169
      2 C          62.9468   80.8723   11.6453 C.ar    1  UNL1        0.1387
      3 C          63.6632   81.6675   10.5945 C.ar    1  UNL1        0.0366
      4 C          63.5624   83.1641   10.5878 C.ar    1  UNL1        0.0008
      5 C          62.7453   83.8655   11.6319 C.ar    1  UNL1       -0.0001
      6 C          62.0289   83.0702   12.6828 C.ar    1  UNL1        0.0008
      7 C          62.1297   81.5737   12.6895 C.ar    1  UNL1        0.0366
      8 C          62.7375   78.5976   10.4077 C.3     1  UNL1        0.2525
      9 O          63.0476   79.3757   11.6520 O.3     1  UNL1       -0.4714
     10 C          61.7205   86.0473   10.6627 C.ar    1  UNL1       -0.0001
     11 C          60.8568   87.1811   11.1301 C.ar    1  UNL1        0.0008
     12 C          59.9327   87.8663   10.1675 C.ar    1  UNL1        0.0366
     13 C          59.8723   87.4177    8.7375 C.ar    1  UNL1        0.1387
     14 C          60.7360   86.2839    8.2700 C.ar    1  UNL1        0.0366
     15 C          61.6601   85.5986    9.2326 C.ar    1  UNL1        0.0008
     16 O          58.9482   88.1029    7.7748 O.3     1  UNL1       -0.4714
     17 C          59.4133   89.3138    7.0216 C.3     1  UNL1        0.2525
     18 N          63.4678   86.1735   12.5812 N.am    1  UNL1       -0.2972
     19 C          63.2860   86.0020   14.0602 C.2     1  UNL1        0.2430
     20 O          62.2809   85.0191   14.5833 O.2     1  UNL1       -0.2732
     21 H          64.1274   86.8186   12.2378 H       1  UNL1        0.1500
     22 C          64.1093   86.8135   15.0161 C.3     1  UNL1        0.1759
     23 N          64.7724   88.0758   14.5503 N.am    1  UNL1       -0.2931
     24 C          64.0504   89.3861   14.6582 C.2     1  UNL1        0.2462
     25 O          62.6652   89.4342   15.2318 O.2     1  UNL1       -0.2701
     26 H          65.6815   88.0442   14.1738 H       1  UNL1        0.1502
     27 C          64.7135   90.6484   14.1923 C.ar    1  UNL1        0.0535
     28 C          65.5855   91.4280   15.1313 C.ar    1  UNL1        0.0068
     29 C          66.2486   92.6903   14.6655 C.ar    1  UNL1        0.0298
     30 C          66.0398   93.1729   13.2607 C.ar    1  UNL1        0.1401
     31 F          66.7029   94.4352   12.7949 F       1  UNL1       -0.2042
     32 C          65.1677   92.3932   12.3217 C.ar    1  UNL1        0.0298
     33 C          64.5046   91.1310   12.7875 C.ar    1  UNL1        0.0068
@<TRIPOS>BOND
     1     8     9    1
     2     9     2    1
     3     2     3   ar
     4     3     4   ar
     5     4     5   ar
     6     5     1    1
     7     1    18    1
     8    18    19   am
     9    19    20    2
    10    19    22    1
    11    22    23    1
    12    23    24   am
    13    24    25    2
    14    24    27    1
    15    27    28   ar
    16    28    29   ar
    17    29    30   ar
    18    30    31    1
    19    30    32   ar
    20    32    33   ar
    21     1    10    1
    22    10    11   ar
    23    11    12   ar
    24    12    13   ar
    25    13    16    1
    26    16    17    1
    27    13    14   ar
    28    14    15   ar
    29     5     6   ar
    30     6     7   ar
    31     7     2   ar
    32    33    27   ar
    33    15    10   ar
    34    18    21    1
    35    23    26    1
