@<TRIPOS>MOLECULE
*****
 27 31 0 0 0
SMALL
GASTEIGER

@<TRIPOS>ATOM
      1 C          59.9017   89.3236    7.9367 C.3     1  UNL1        0.0534
      2 C          60.6146   88.4788    8.9508 C.ar    1  UNL1        0.0730
      3 N          61.3950   88.9846   10.1277 N.ar    1  UNL1       -0.2299
      4 C          61.9349   87.7984   10.8702 C.ar    1  UNL1        0.1601
      5 C          62.7757   87.6864   12.1074 C.ar    1  UNL1        0.0772
      6 C          63.1697   86.3354   12.6266 C.ar    1  UNL1        0.0132
      7 C          62.7230   85.0964   11.9085 C.ar    1  UNL1        0.0994
      8 C          61.8823   85.2085   10.6714 C.ar    1  UNL1        0.1001
      9 N          61.4883   86.5595   10.1522 N.ar    1  UNL1       -0.2905
     10 C          60.6723   86.9800    8.9659 C.ar    1  UNL1        0.0567
     11 C          60.0271   86.0627    7.9696 C.3     1  UNL1        0.0517
     12 C          64.0104   86.2233   13.8637 C.3     1  UNL1        0.0313
     13 C          64.4571   87.4622   14.5817 C.3     1  UNL1        0.0288
     14 C          64.0630   88.8132   14.0626 C.3     1  UNL1        0.0923
     15 N          63.2223   88.9253   12.8254 N.pl3   1  UNL1       -0.3284
     16 H          62.9637   89.8120   12.4846 H       1  UNL1        0.1471
     17 C          64.5097   90.0522   14.7806 C.ar    1  UNL1       -0.0046
     18 C          65.7198   90.7999   14.3045 C.ar    1  UNL1       -0.0027
     19 C          66.1665   92.0388   15.0226 C.ar    1  UNL1       -0.0003
     20 C          65.4031   92.5300   16.2167 C.ar    1  UNL1       -0.0000
     21 C          64.1930   91.7822   16.6928 C.ar    1  UNL1       -0.0003
     22 C          63.7464   90.5433   15.9748 C.ar    1  UNL1       -0.0027
     23 N          63.1171   83.7454   12.4277 N.ar    1  UNL1       -0.2067
     24 C          64.2515   82.9035   11.9234 C.ar    1  UNL1        0.2017
     25 N          64.2814   81.6369   12.7263 N.ar    1  UNL1       -0.2004
     26 C          63.1655   81.6960   13.7270 C.ar    1  UNL1        0.2214
     27 N          62.4459   82.9991   13.5424 N.ar    1  UNL1       -0.1408
@<TRIPOS>BOND
     1     1     2    1
     2     2     3   ar
     3     3     4   ar
     4     4     5   ar
     5     5     6   ar
     6     6     7   ar
     7     7    23    1
     8    23    24   ar
     9    24    25   ar
    10    25    26   ar
    11    26    27   ar
    12     7     8   ar
    13     8     9   ar
    14     9    10   ar
    15    10    11    1
    16     6    12    1
    17    12    13    1
    18    13    14    1
    19    14    17    1
    20    17    18   ar
    21    18    19   ar
    22    19    20   ar
    23    20    21   ar
    24    21    22   ar
    25    14    15    1
    26    10     2   ar
    27    22    17   ar
    28     9     4   ar
    29    15     5    1
    30    27    23   ar
    31    15    16    1
@<TRIPOS>MOLECULE
*****
 27 31 0 0 0
SMALL
GASTEIGER

@<TRIPOS>ATOM
      1 C          64.2792   82.4813   14.5666 C.3     1  UNL1        0.0534
      2 C          63.7598   83.6278   13.7506 C.ar    1  UNL1        0.0730
      3 N          64.0346   85.0816   13.9977 N.ar    1  UNL1       -0.2299
      4 C          63.3190   85.8741   12.9442 C.ar    1  UNL1        0.1601
      5 C          63.2278   87.3491   12.6867 C.ar    1  UNL1        0.0772
      6 C          62.4194   87.8600   11.5310 C.ar    1  UNL1        0.0132
      7 C          61.7024   86.8960   10.6329 C.ar    1  UNL1        0.0994
      8 C          61.7937   85.4212   10.8904 C.ar    1  UNL1        0.1001
      9 N          62.6020   84.9102   12.0460 N.ar    1  UNL1       -0.2905
     10 C          62.8744   83.5219   12.5445 C.ar    1  UNL1        0.0567
     11 C          62.3529   82.2508   11.9423 C.3     1  UNL1        0.0517
     12 C          62.3281   89.3349   11.2735 C.3     1  UNL1        0.0313
     13 C          63.0452   90.2988   12.1716 C.3     1  UNL1        0.0288
     14 C          63.8535   89.7879   13.3273 C.3     1  UNL1        0.0923
     15 N          63.9448   88.3130   13.5848 N.pl3   1  UNL1       -0.3284
     16 H          64.4753   87.9776   14.3433 H       1  UNL1        0.1471
     17 C          64.5705   90.7519   14.2254 C.ar    1  UNL1       -0.0046
     18 C          65.8079   91.4487   13.7423 C.ar    1  UNL1       -0.0027
     19 C          66.5249   92.4127   14.6405 C.ar    1  UNL1       -0.0003
     20 C          66.0046   92.6798   16.0218 C.ar    1  UNL1       -0.0000
     21 C          64.7672   91.9830   16.5048 C.ar    1  UNL1       -0.0003
     22 C          64.0502   91.0190   15.6067 C.ar    1  UNL1       -0.0027
     23 N          60.8941   87.4070    9.4772 N.ar    1  UNL1       -0.2067
     24 C          60.2212   86.5673    8.4322 C.ar    1  UNL1        0.2017
     25 N          59.5279   87.4887    7.4728 N.ar    1  UNL1       -0.2004
     26 C          59.7724   88.8979    7.9248 C.ar    1  UNL1        0.2214
     27 N          60.6167   88.8474    9.1636 N.ar    1  UNL1       -0.1408
@<TRIPOS>BOND
     1     1     2    1
     2     2     3   ar
     3     3     4   ar
     4     4     5   ar
     5     5     6   ar
     6     6     7   ar
     7     7    23    1
     8    23    24   ar
     9    24    25   ar
    10    25    26   ar
    11    26    27   ar
    12     7     8   ar
    13     8     9   ar
    14     9    10   ar
    15    10    11    1
    16     6    12    1
    17    12    13    1
    18    13    14    1
    19    14    17    1
    20    17    18   ar
    21    18    19   ar
    22    19    20   ar
    23    20    21   ar
    24    21    22   ar
    25    14    15    1
    26    10     2   ar
    27    22    17   ar
    28     9     4   ar
    29    15     5    1
    30    27    23   ar
    31    15    16    1
@<TRIPOS>MOLECULE
*****
 27 31 0 0 0
SMALL
GASTEIGER

@<TRIPOS>ATOM
      1 C          58.9266   87.1624    7.3007 C.3     1  UNL1        0.0534
      2 C          59.8730   87.4369    8.4316 C.ar    1  UNL1        0.0730
      3 N          60.4424   86.4165    9.3722 N.ar    1  UNL1       -0.2299
      4 C          61.3374   87.1289   10.3424 C.ar    1  UNL1        0.1601
      5 C          62.1652   86.6363   11.4923 C.ar    1  UNL1        0.0772
      6 C          62.9767   87.6043   12.3012 C.ar    1  UNL1        0.0132
      7 C          62.9604   89.0650   11.9603 C.ar    1  UNL1        0.0994
      8 C          62.1327   89.5576   10.8104 C.ar    1  UNL1        0.1001
      9 N          61.3212   88.5896   10.0015 N.ar    1  UNL1       -0.2905
     10 C          60.4161   88.7799    8.8206 C.ar    1  UNL1        0.0567
     11 C          60.1083   90.0843    8.1468 C.3     1  UNL1        0.0517
     12 C          63.8044   87.1117   13.4511 C.3     1  UNL1        0.0313
     13 C          63.8206   85.6511   13.7920 C.3     1  UNL1        0.0288
     14 C          63.0091   84.6830   12.9830 C.3     1  UNL1        0.0923
     15 N          62.1814   85.1756   11.8332 N.pl3   1  UNL1       -0.3284
     16 H          61.6487   84.5403   11.3023 H       1  UNL1        0.1471
     17 C          63.0253   83.2223   13.3240 C.ar    1  UNL1       -0.0046
     18 C          64.2186   82.3837   12.9740 C.ar    1  UNL1       -0.0027
     19 C          64.2348   80.9230   13.3149 C.ar    1  UNL1       -0.0003
     20 C          63.0577   80.3010   14.0059 C.ar    1  UNL1       -0.0000
     21 C          61.8643   81.1398   14.3560 C.ar    1  UNL1       -0.0003
     22 C          61.8481   82.6004   14.0150 C.ar    1  UNL1       -0.0027
     23 N          63.7719   90.0330   12.7692 N.ar    1  UNL1       -0.2067
     24 C          64.2005   91.4032   12.3346 C.ar    1  UNL1        0.2017
     25 N          64.9908   92.0178   13.4516 N.ar    1  UNL1       -0.2004
     26 C          65.0506   91.0275   14.5766 C.ar    1  UNL1        0.2214
     27 N          64.2974   89.8008   14.1549 N.ar    1  UNL1       -0.1408
@<TRIPOS>BOND
     1     1     2    1
     2     2     3   ar
     3     3     4   ar
     4     4     5   ar
     5     5     6   ar
     6     6     7   ar
     7     7    23    1
     8    23    24   ar
     9    24    25   ar
    10    25    26   ar
    11    26    27   ar
    12     7     8   ar
    13     8     9   ar
    14     9    10   ar
    15    10    11    1
    16     6    12    1
    17    12    13    1
    18    13    14    1
    19    14    17    1
    20    17    18   ar
    21    18    19   ar
    22    19    20   ar
    23    20    21   ar
    24    21    22   ar
    25    14    15    1
    26    10     2   ar
    27    22    17   ar
    28     9     4   ar
    29    15     5    1
    30    27    23   ar
    31    15    16    1
@<TRIPOS>MOLECULE
*****
 27 31 0 0 0
SMALL
GASTEIGER

@<TRIPOS>ATOM
      1 C          66.1621   94.5574   10.3609 C.3     1  UNL1        0.0534
      2 C          65.5123   93.3936   11.0489 C.ar    1  UNL1        0.0730
      3 N          64.4784   92.4834   10.4550 N.ar    1  UNL1       -0.2299
      4 C          64.1095   91.4629   11.4906 C.ar    1  UNL1        0.1601
      5 C          63.1438   90.3153   11.4695 C.ar    1  UNL1        0.0772
      6 C          62.9840   89.4471   12.6822 C.ar    1  UNL1        0.0132
      7 C          63.7899   89.7266   13.9161 C.ar    1  UNL1        0.0994
      8 C          64.7556   90.8742   13.9373 C.ar    1  UNL1        0.1001
      9 N          64.9154   91.7424   12.7245 N.ar    1  UNL1       -0.2905
     10 C          65.7824   92.9356   12.4515 C.ar    1  UNL1        0.0567
     11 C          66.7496   93.5610   13.4125 C.3     1  UNL1        0.0517
     12 C          62.0184   88.2995   12.6611 C.3     1  UNL1        0.0313
     13 C          61.2125   88.0201   11.4272 C.3     1  UNL1        0.0288
     14 C          61.3723   88.8883   10.2144 C.3     1  UNL1        0.0923
     15 N          62.3380   90.0359   10.2356 N.pl3   1  UNL1       -0.3284
     16 H          62.4429   90.6057    9.4396 H       1  UNL1        0.1471
     17 C          60.5664   88.6088    8.9805 C.ar    1  UNL1       -0.0046
     18 C          60.2019   89.7298    8.0530 C.ar    1  UNL1       -0.0027
     19 C          59.3960   89.4503    6.8190 C.ar    1  UNL1       -0.0003
     20 C          58.9547   88.0498    6.5128 C.ar    1  UNL1       -0.0000
     21 C          59.3192   86.9287    7.4404 C.ar    1  UNL1       -0.0003
     22 C          60.1251   87.2083    8.6742 C.ar    1  UNL1       -0.0027
     23 N          63.6301   88.8584   15.1289 N.ar    1  UNL1       -0.2067
     24 C          63.1289   89.3023   16.4711 C.ar    1  UNL1        0.2017
     25 N          63.1325   88.1121   17.3841 N.ar    1  UNL1       -0.2004
     26 C          63.6359   86.9327   16.6061 C.ar    1  UNL1        0.2214
     27 N          63.9435   87.3939   15.2123 N.ar    1  UNL1       -0.1408
@<TRIPOS>BOND
     1     1     2    1
     2     2     3   ar
     3     3     4   ar
     4     4     5   ar
     5     5     6   ar
     6     6     7   ar
     7     7    23    1
     8    23    24   ar
     9    24    25   ar
    10    25    26   ar
    11    26    27   ar
    12     7     8   ar
    13     8     9   ar
    14     9    10   ar
    15    10    11    1
    16     6    12    1
    17    12    13    1
    18    13    14    1
    19    14    17    1
    20    17    18   ar
    21    18    19   ar
    22    19    20   ar
    23    20    21   ar
    24    21    22   ar
    25    14    15    1
    26    10     2   ar
    27    22    17   ar
    28     9     4   ar
    29    15     5    1
    30    27    23   ar
    31    15    16    1
