@<TRIPOS>MOLECULE
*****
 30 31 0 0 0
SMALL
GASTEIGER

@<TRIPOS>ATOM
      1 C          65.4522   90.9153   14.8874 C.2     1  UNL1        0.0786
      2 C          64.1486   90.4859   15.4928 C.2     1  UNL1        0.1369
      3 O          63.3664   91.4413   16.3444 O.2     1  UNL1       -0.5054
      4 H          63.6921   92.3063   16.4983 H       1  UNL1        0.2922
      5 C          65.9735   92.3000   15.1338 C.2     1  UNL1        0.1988
      6 O          65.9504   92.8747   16.5192 O.2     1  UNL1       -0.2865
      7 C          65.7551   93.1999   12.7063 C.2     1  UNL1        0.0034
      8 C          66.5179   93.1101   13.9948 C.2     1  UNL1        0.0421
      9 C          67.5480   94.1387    9.2924 C.ar    1  UNL1        0.1721
     10 C          67.0035   93.3286   10.4314 C.ar    1  UNL1        0.0400
     11 C          66.2996   94.0101   11.5673 C.ar    1  UNL1        0.0033
     12 C          66.1402   95.5015   11.5642 C.ar    1  UNL1        0.0033
     13 C          66.6847   96.3116   10.4252 C.ar    1  UNL1        0.0398
     14 C          67.3886   95.6302    9.2894 C.ar    1  UNL1        0.1677
     15 O          67.9330   96.4403    8.1503 O.3     1  UNL1       -0.5029
     16 H          67.8335   97.3720    8.1484 H       1  UNL1        0.2923
     17 C          68.9102   92.1269    8.3722 C.3     1  UNL1        0.2526
     18 O          68.2518   93.4573    8.1566 O.3     1  UNL1       -0.4684
     19 C          63.6273   89.1012   15.2464 C.2     1  UNL1        0.0367
     20 C          64.5613   88.0171   14.7969 C.2     1  UNL1        0.0032
     21 C          64.0400   86.6323   14.5506 C.ar    1  UNL1        0.0033
     22 C          64.0764   85.6109   15.6484 C.ar    1  UNL1        0.0033
     23 C          63.5551   84.2261   15.4020 C.ar    1  UNL1        0.0398
     24 C          62.9973   83.8628   14.0579 C.ar    1  UNL1        0.1677
     25 O          62.4760   82.4781   13.8115 O.3     1  UNL1       -0.5029
     26 C          62.9609   84.8843   12.9600 C.ar    1  UNL1        0.1721
     27 C          63.4822   86.2690   13.2064 C.ar    1  UNL1        0.0400
     28 H          62.4988   81.8400   14.4973 H       1  UNL1        0.2923
     29 O          62.4031   84.5210   11.6158 O.3     1  UNL1       -0.4684
     30 C          61.6853   85.5532   10.7978 C.3     1  UNL1        0.2526
@<TRIPOS>BOND
     1    17    18    1
     2    18     9    1
     3     9    10   ar
     4    10    11   ar
     5    11     7    1
     6     7     8    2
     7     8     5    1
     8     5     6    2
     9     5     1    1
    10     1     2    2
    11     2     3    1
    12     2    19    1
    13    19    20    2
    14    20    21    1
    15    21    22   ar
    16    22    23   ar
    17    23    24   ar
    18    24    25    1
    19    24    26   ar
    20    26    29    1
    21    29    30    1
    22    26    27   ar
    23    11    12   ar
    24    12    13   ar
    25    13    14   ar
    26    14    15    1
    27    14     9   ar
    28    27    21   ar
    29     3     4    1
    30    25    28    1
    31    15    16    1
@<TRIPOS>MOLECULE
*****
 30 31 0 0 0
SMALL
GASTEIGER

@<TRIPOS>ATOM
      1 C          61.8759   87.8946    9.5721 C.2     1  UNL1        0.0786
      2 C          61.6982   88.9221   10.6505 C.2     1  UNL1        0.1369
      3 O          60.6575   88.7227   11.7121 O.2     1  UNL1       -0.5054
      4 H          60.1184   87.9564   11.7017 H       1  UNL1        0.2922
      5 C          61.0129   86.6679    9.5554 C.2     1  UNL1        0.1988
      6 O          59.8704   86.5677    8.5886 O.2     1  UNL1       -0.2865
      7 C          62.6682   84.9488   10.5824 C.2     1  UNL1        0.0034
      8 C          61.2923   85.5413   10.5056 C.2     1  UNL1        0.0421
      9 C          63.1168   82.9176   13.9622 C.ar    1  UNL1        0.1721
     10 C          62.8374   84.0441   13.0120 C.ar    1  UNL1        0.0400
     11 C          62.9476   83.8222   11.5326 C.ar    1  UNL1        0.0033
     12 C          63.3372   82.4738   11.0034 C.ar    1  UNL1        0.0033
     13 C          63.6165   81.3473   11.9536 C.ar    1  UNL1        0.0398
     14 C          63.5064   81.5692   13.4330 C.ar    1  UNL1        0.1677
     15 O          63.7858   80.4426   14.3832 O.3     1  UNL1       -0.5029
     16 H          64.0291   79.6003   14.0526 H       1  UNL1        0.2923
     17 C          62.5830   84.4779   15.9698 C.3     1  UNL1        0.2526
     18 O          63.0066   83.1394   15.4416 O.3     1  UNL1       -0.4684
     19 C          62.5612   90.1488   10.6671 C.2     1  UNL1        0.0367
     20 C          63.5451   90.3586   11.7797 C.2     1  UNL1        0.0032
     21 C          64.4081   91.5853   11.7964 C.ar    1  UNL1        0.0033
     22 C          64.5844   92.3954   10.5463 C.ar    1  UNL1        0.0033
     23 C          65.4474   93.6221   10.5629 C.ar    1  UNL1        0.0398
     24 C          66.1342   94.0389   11.8297 C.ar    1  UNL1        0.1677
     25 O          66.9972   95.2656   11.8463 O.3     1  UNL1       -0.5029
     26 C          65.9579   93.2288   13.0797 C.ar    1  UNL1        0.1721
     27 C          65.0949   92.0021   13.0631 C.ar    1  UNL1        0.0400
     28 H          67.1073   95.7716   11.0654 H       1  UNL1        0.2923
     29 O          66.6447   93.6455   14.3465 O.3     1  UNL1       -0.4684
     30 C          66.5802   92.7651   15.5592 C.3     1  UNL1        0.2526
@<TRIPOS>BOND
     1    17    18    1
     2    18     9    1
     3     9    10   ar
     4    10    11   ar
     5    11     7    1
     6     7     8    2
     7     8     5    1
     8     5     6    2
     9     5     1    1
    10     1     2    2
    11     2     3    1
    12     2    19    1
    13    19    20    2
    14    20    21    1
    15    21    22   ar
    16    22    23   ar
    17    23    24   ar
    18    24    25    1
    19    24    26   ar
    20    26    29    1
    21    29    30    1
    22    26    27   ar
    23    11    12   ar
    24    12    13   ar
    25    13    14   ar
    26    14    15    1
    27    14     9   ar
    28    27    21   ar
    29     3     4    1
    30    25    28    1
    31    15    16    1
@<TRIPOS>MOLECULE
*****
 30 31 0 0 0
SMALL
GASTEIGER

@<TRIPOS>ATOM
      1 C          63.6293   87.7893   16.5052 C.2     1  UNL1        0.0786
      2 C          62.8575   89.0265   16.1535 C.2     1  UNL1        0.1369
      3 O          61.3899   89.1054   16.4531 O.2     1  UNL1       -0.5054
      4 H          60.9552   88.3819   16.8600 H       1  UNL1        0.2922
      5 C          62.9335   86.6310   17.1566 C.2     1  UNL1        0.1988
      6 O          62.4406   86.7497   18.5684 O.2     1  UNL1       -0.2865
      7 C          63.4677   85.1213   15.1108 C.2     1  UNL1        0.0034
      8 C          62.7305   85.3541   16.3962 C.2     1  UNL1        0.0421
      9 C          63.7356   82.3684   12.2648 C.ar    1  UNL1        0.1721
     10 C          63.9386   83.6453   13.0252 C.ar    1  UNL1        0.0400
     11 C          63.2647   83.8443   14.3504 C.ar    1  UNL1        0.0033
     12 C          62.3878   82.7664   14.9152 C.ar    1  UNL1        0.0033
     13 C          62.1847   81.4895   14.1549 C.ar    1  UNL1        0.0398
     14 C          62.8586   81.2905   12.8296 C.ar    1  UNL1        0.1677
     15 O          62.6556   80.0135   12.0692 O.3     1  UNL1       -0.5029
     16 H          62.1078   79.3401   12.4221 H       1  UNL1        0.2923
     17 C          64.2603   83.2000    9.8600 C.3     1  UNL1        0.2526
     18 O          64.4095   82.1693   10.9395 O.3     1  UNL1       -0.4684
     19 C          63.5533   90.1847   15.5022 C.2     1  UNL1        0.0367
     20 C          64.1042   90.0445   14.1141 C.2     1  UNL1        0.0032
     21 C          64.8001   91.2028   13.4628 C.ar    1  UNL1        0.0033
     22 C          64.4909   91.5591   12.0389 C.ar    1  UNL1        0.0033
     23 C          65.1868   92.7174   11.3876 C.ar    1  UNL1        0.0398
     24 C          66.1918   93.5193   12.1601 C.ar    1  UNL1        0.1677
     25 O          66.8876   94.6775   11.5088 O.3     1  UNL1       -0.5029
     26 C          66.5009   93.1629   13.5840 C.ar    1  UNL1        0.1721
     27 C          65.8051   92.0047   14.2353 C.ar    1  UNL1        0.0400
     28 H          66.6945   94.9001   10.6194 H       1  UNL1        0.2923
     29 O          67.5060   93.9649   14.3566 O.3     1  UNL1       -0.4684
     30 C          68.0088   93.4643   15.6782 C.3     1  UNL1        0.2526
@<TRIPOS>BOND
     1    17    18    1
     2    18     9    1
     3     9    10   ar
     4    10    11   ar
     5    11     7    1
     6     7     8    2
     7     8     5    1
     8     5     6    2
     9     5     1    1
    10     1     2    2
    11     2     3    1
    12     2    19    1
    13    19    20    2
    14    20    21    1
    15    21    22   ar
    16    22    23   ar
    17    23    24   ar
    18    24    25    1
    19    24    26   ar
    20    26    29    1
    21    29    30    1
    22    26    27   ar
    23    11    12   ar
    24    12    13   ar
    25    13    14   ar
    26    14    15    1
    27    14     9   ar
    28    27    21   ar
    29     3     4    1
    30    25    28    1
    31    15    16    1
@<TRIPOS>MOLECULE
*****
 30 31 0 0 0
SMALL
GASTEIGER

@<TRIPOS>ATOM
      1 C          62.3135   88.3874   10.0035 C.2     1  UNL1        0.0786
      2 C          62.0196   89.1893   11.2366 C.2     1  UNL1        0.1369
      3 O          60.7815   88.9093   12.0358 O.2     1  UNL1       -0.5054
      4 H          60.1917   88.2336   11.7648 H       1  UNL1        0.2922
      5 C          61.3694   87.3056    9.5696 C.2     1  UNL1        0.1988
      6 O          60.3792   87.5693    8.4741 O.2     1  UNL1       -0.2865
      7 C          62.6961   85.4645   10.8346 C.2     1  UNL1        0.0034
      8 C          61.4154   85.9602   10.2311 C.2     1  UNL1        0.0421
      9 C          62.6842   82.6679   13.6503 C.ar    1  UNL1        0.1721
     10 C          62.6382   84.0133   12.9888 C.ar    1  UNL1        0.0400
     11 C          62.7421   84.1190   11.4961 C.ar    1  UNL1        0.0033
     12 C          62.8920   82.8794   10.6650 C.ar    1  UNL1        0.0033
     13 C          62.9380   81.5340   11.3266 C.ar    1  UNL1        0.0398
     14 C          62.8341   81.4282   12.8192 C.ar    1  UNL1        0.1677
     15 O          62.8801   80.0827   13.4808 O.3     1  UNL1       -0.5029
     16 H          62.9737   79.3083   12.9616 H       1  UNL1        0.2923
     17 C          62.5837   83.8035   15.9849 C.3     1  UNL1        0.2526
     18 O          62.5803   82.5621   15.1430 O.3     1  UNL1       -0.4684
     19 C          62.9637   90.2711   11.6705 C.2     1  UNL1        0.0367
     20 C          63.8065   90.0836   12.8971 C.2     1  UNL1        0.0032
     21 C          64.7506   91.1654   13.3310 C.ar    1  UNL1        0.0033
     22 C          65.1242   91.2991   14.7776 C.ar    1  UNL1        0.0033
     23 C          66.0683   92.3809   15.2114 C.ar    1  UNL1        0.0398
     24 C          66.6389   93.3290   14.1988 C.ar    1  UNL1        0.1677
     25 O          67.5831   94.4108   14.6327 O.3     1  UNL1       -0.5029
     26 C          66.2654   93.1953   12.7522 C.ar    1  UNL1        0.1721
     27 C          65.3212   92.1135   12.3184 C.ar    1  UNL1        0.0400
     28 H          67.8164   94.4944   15.5363 H       1  UNL1        0.2923
     29 O          66.8360   94.1434   11.7395 O.3     1  UNL1       -0.4684
     30 C          66.0998   95.4036   11.3936 C.3     1  UNL1        0.2526
@<TRIPOS>BOND
     1    17    18    1
     2    18     9    1
     3     9    10   ar
     4    10    11   ar
     5    11     7    1
     6     7     8    2
     7     8     5    1
     8     5     6    2
     9     5     1    1
    10     1     2    2
    11     2     3    1
    12     2    19    1
    13    19    20    2
    14    20    21    1
    15    21    22   ar
    16    22    23   ar
    17    23    24   ar
    18    24    25    1
    19    24    26   ar
    20    26    29    1
    21    29    30    1
    22    26    27   ar
    23    11    12   ar
    24    12    13   ar
    25    13    14   ar
    26    14    15    1
    27    14     9   ar
    28    27    21   ar
    29     3     4    1
    30    25    28    1
    31    15    16    1
@<TRIPOS>MOLECULE
*****
 30 31 0 0 0
SMALL
GASTEIGER

@<TRIPOS>ATOM
      1 C          62.4266   88.0720   10.5067 C.2     1  UNL1        0.0786
      2 C          62.0026   89.1029   11.5105 C.2     1  UNL1        0.1369
      3 O          60.6327   89.0393   12.1180 O.2     1  UNL1       -0.5054
      4 H          60.0417   88.3556   11.8705 H       1  UNL1        0.2922
      5 C          61.4805   86.9775   10.1104 C.2     1  UNL1        0.1988
      6 O          60.4859   87.2073    9.0113 O.2     1  UNL1       -0.2865
      7 C          62.7044   85.3056   11.6778 C.2     1  UNL1        0.0034
      8 C          61.5290   85.6533   10.8132 C.2     1  UNL1        0.0421
      9 C          62.7805   81.3850   12.2887 C.ar    1  UNL1        0.1721
     10 C          62.7320   82.7093   11.5859 C.ar    1  UNL1        0.0400
     11 C          62.7528   83.9813   12.3806 C.ar    1  UNL1        0.0033
     12 C          62.8221   83.9290   13.8781 C.ar    1  UNL1        0.0033
     13 C          62.8705   82.6047   14.5808 C.ar    1  UNL1        0.0398
     14 C          62.8497   81.3327   13.7861 C.ar    1  UNL1        0.1677
     15 O          62.8981   80.0084   14.4889 O.3     1  UNL1       -0.5029
     16 H          62.9414   79.9758   15.4244 H       1  UNL1        0.2923
     17 C          63.0531   80.1426   10.0233 C.3     1  UNL1        0.2526
     18 O          62.7597   80.1130   11.4940 O.3     1  UNL1       -0.4684
     19 C          62.9487   90.1974   11.9068 C.2     1  UNL1        0.0367
     20 C          63.8375   90.0241   13.1026 C.2     1  UNL1        0.0032
     21 C          64.7836   91.1186   13.4989 C.ar    1  UNL1        0.0033
     22 C          65.1459   91.3109   14.9416 C.ar    1  UNL1        0.0033
     23 C          66.0920   92.4054   15.3379 C.ar    1  UNL1        0.0398
     24 C          66.6758   93.3075   14.2914 C.ar    1  UNL1        0.1677
     25 O          67.6218   94.4020   14.6876 O.3     1  UNL1       -0.5029
     26 C          66.3134   93.1152   12.8486 C.ar    1  UNL1        0.1721
     27 C          65.3673   92.0207   12.4523 C.ar    1  UNL1        0.0400
     28 H          67.8482   94.5221   15.5889 H       1  UNL1        0.2923
     29 O          66.8972   94.0174   11.8020 O.3     1  UNL1       -0.4684
     30 C          66.1433   95.2351   11.3563 C.3     1  UNL1        0.2526
@<TRIPOS>BOND
     1    17    18    1
     2    18     9    1
     3     9    10   ar
     4    10    11   ar
     5    11     7    1
     6     7     8    2
     7     8     5    1
     8     5     6    2
     9     5     1    1
    10     1     2    2
    11     2     3    1
    12     2    19    1
    13    19    20    2
    14    20    21    1
    15    21    22   ar
    16    22    23   ar
    17    23    24   ar
    18    24    25    1
    19    24    26   ar
    20    26    29    1
    21    29    30    1
    22    26    27   ar
    23    11    12   ar
    24    12    13   ar
    25    13    14   ar
    26    14    15    1
    27    14     9   ar
    28    27    21   ar
    29     3     4    1
    30    25    28    1
    31    15    16    1
@<TRIPOS>MOLECULE
*****
 30 31 0 0 0
SMALL
GASTEIGER

@<TRIPOS>ATOM
      1 C          62.0138   87.7031    9.5276 C.2     1  UNL1        0.0786
      2 C          61.7740   88.7391   10.5856 C.2     1  UNL1        0.1369
      3 O          60.6924   88.5342   11.6045 O.2     1  UNL1       -0.5054
      4 H          60.1665   87.7590   11.5801 H       1  UNL1        0.2922
      5 C          61.1719   86.4622    9.4886 C.2     1  UNL1        0.1988
      6 O          59.8662   86.4646    8.7502 O.2     1  UNL1       -0.2865
      7 C          62.1954   85.3041   11.5770 C.2     1  UNL1        0.0034
      8 C          61.6358   85.2189   10.1879 C.2     1  UNL1        0.0421
      9 C          62.9662   81.4811   12.3124 C.ar    1  UNL1        0.1721
     10 C          62.5024   82.7245   11.6132 C.ar    1  UNL1        0.0400
     11 C          62.6592   84.0607   12.2763 C.ar    1  UNL1        0.0033
     12 C          63.2798   84.1537   13.6387 C.ar    1  UNL1        0.0033
     13 C          63.7436   82.9104   14.3379 C.ar    1  UNL1        0.0398
     14 C          63.5868   81.5741   13.6748 C.ar    1  UNL1        0.1677
     15 O          64.0506   80.3307   14.3741 O.3     1  UNL1       -0.5029
     16 H          64.4383   80.3888   15.2251 H       1  UNL1        0.2923
     17 C          62.8971   80.0337   10.1560 C.3     1  UNL1        0.2526
     18 O          62.8093   80.1449   11.6492 O.3     1  UNL1       -0.4684
     19 C          62.6158   89.9800   10.6247 C.2     1  UNL1        0.0367
     20 C          63.5096   90.2433   11.8001 C.2     1  UNL1        0.0032
     21 C          64.3514   91.4841   11.8392 C.ar    1  UNL1        0.0033
     22 C          64.6225   92.2466   10.5762 C.ar    1  UNL1        0.0033
     23 C          65.4643   93.4874   10.6152 C.ar    1  UNL1        0.0398
     24 C          66.0351   93.9659   11.9172 C.ar    1  UNL1        0.1677
     25 O          66.8769   95.2068   11.9563 O.3     1  UNL1       -0.5029
     26 C          65.7640   93.2035   13.1802 C.ar    1  UNL1        0.1721
     27 C          64.9222   91.9626   13.1412 C.ar    1  UNL1        0.0400
     28 H          67.0463   95.6830   11.1673 H       1  UNL1        0.2923
     29 O          66.3348   93.6819   14.4823 O.3     1  UNL1       -0.4684
     30 C          67.1305   92.7449   15.3418 C.3     1  UNL1        0.2526
@<TRIPOS>BOND
     1    17    18    1
     2    18     9    1
     3     9    10   ar
     4    10    11   ar
     5    11     7    1
     6     7     8    2
     7     8     5    1
     8     5     6    2
     9     5     1    1
    10     1     2    2
    11     2     3    1
    12     2    19    1
    13    19    20    2
    14    20    21    1
    15    21    22   ar
    16    22    23   ar
    17    23    24   ar
    18    24    25    1
    19    24    26   ar
    20    26    29    1
    21    29    30    1
    22    26    27   ar
    23    11    12   ar
    24    12    13   ar
    25    13    14   ar
    26    14    15    1
    27    14     9   ar
    28    27    21   ar
    29     3     4    1
    30    25    28    1
    31    15    16    1
@<TRIPOS>MOLECULE
*****
 30 31 0 0 0
SMALL
GASTEIGER

@<TRIPOS>ATOM
      1 C          64.6550   90.0522   14.2696 C.2     1  UNL1        0.0786
      2 C          63.8494   90.6922   13.1779 C.2     1  UNL1        0.1369
      3 O          62.3645   90.4874   13.1231 O.2     1  UNL1       -0.5054
      4 H          61.9401   89.9597   13.7707 H       1  UNL1        0.2922
      5 C          63.9756   89.2074   15.3063 C.2     1  UNL1        0.1988
      6 O          63.2033   89.8581   16.4155 O.2     1  UNL1       -0.2865
      7 C          63.6669   86.9956   13.9787 C.2     1  UNL1        0.0034
      8 C          64.0684   87.7121   15.2339 C.2     1  UNL1        0.0421
      9 C          64.2529   83.3396   12.5505 C.ar    1  UNL1        0.1721
     10 C          64.1601   84.8349   12.6229 C.ar    1  UNL1        0.0400
     11 C          63.7597   85.5002   13.9063 C.ar    1  UNL1        0.0033
     12 C          63.4522   84.6702   15.1173 C.ar    1  UNL1        0.0033
     13 C          63.5451   83.1749   15.0448 C.ar    1  UNL1        0.0398
     14 C          63.9454   82.5095   13.7615 C.ar    1  UNL1        0.1677
     15 O          64.0382   81.0141   13.6891 O.3     1  UNL1       -0.5029
     16 H          63.8462   80.4956   14.4455 H       1  UNL1        0.2923
     17 C          64.0242   83.0998    9.9737 C.3     1  UNL1        0.2526
     18 O          64.6533   82.6742   11.2671 O.3     1  UNL1       -0.4684
     19 C          64.5289   91.5369   12.1412 C.2     1  UNL1        0.0367
     20 C          65.3771   92.7008   12.5603 C.2     1  UNL1        0.0032
     21 C          66.0565   93.5455   11.5236 C.ar    1  UNL1        0.0033
     22 C          65.9895   95.0413   11.6133 C.ar    1  UNL1        0.0033
     23 C          66.6689   95.8861   10.5765 C.ar    1  UNL1        0.0398
     24 C          67.4154   95.2350    9.4501 C.ar    1  UNL1        0.1677
     25 O          68.0948   96.0797    8.4134 O.3     1  UNL1       -0.5029
     26 C          67.4825   93.7392    9.3605 C.ar    1  UNL1        0.1721
     27 C          66.8030   92.8945   10.3972 C.ar    1  UNL1        0.0400
     28 H          68.0529   97.0141    8.4694 H       1  UNL1        0.2923
     29 O          68.2290   93.0881    8.2340 O.3     1  UNL1       -0.4684
     30 C          69.0348   91.8483    8.4860 C.3     1  UNL1        0.2526
@<TRIPOS>BOND
     1    17    18    1
     2    18     9    1
     3     9    10   ar
     4    10    11   ar
     5    11     7    1
     6     7     8    2
     7     8     5    1
     8     5     6    2
     9     5     1    1
    10     1     2    2
    11     2     3    1
    12     2    19    1
    13    19    20    2
    14    20    21    1
    15    21    22   ar
    16    22    23   ar
    17    23    24   ar
    18    24    25    1
    19    24    26   ar
    20    26    29    1
    21    29    30    1
    22    26    27   ar
    23    11    12   ar
    24    12    13   ar
    25    13    14   ar
    26    14    15    1
    27    14     9   ar
    28    27    21   ar
    29     3     4    1
    30    25    28    1
    31    15    16    1
@<TRIPOS>MOLECULE
*****
 30 31 0 0 0
SMALL
GASTEIGER

@<TRIPOS>ATOM
      1 C          64.4637   89.2446   14.2345 C.2     1  UNL1        0.0786
      2 C          64.1441   90.7017   14.0771 C.2     1  UNL1        0.1369
      3 O          63.3109   91.4026   15.1088 O.2     1  UNL1       -0.5054
      4 H          62.9901   90.9302   15.8517 H       1  UNL1        0.2922
      5 C          63.9501   88.4884   15.4238 C.2     1  UNL1        0.1988
      6 O          63.6028   89.2213   16.6857 O.2     1  UNL1       -0.2865
      7 C          63.6666   86.3220   14.0181 C.2     1  UNL1        0.0034
      8 C          63.7839   86.9995   15.3512 C.2     1  UNL1        0.0421
      9 C          63.9302   82.5776   12.7295 C.ar    1  UNL1        0.1721
     10 C          64.0964   84.0666   12.8021 C.ar    1  UNL1        0.0400
     11 C          63.5003   84.8330   13.9455 C.ar    1  UNL1        0.0033
     12 C          62.7380   84.1104   15.0163 C.ar    1  UNL1        0.0033
     13 C          62.5717   82.6214   14.9437 C.ar    1  UNL1        0.0398
     14 C          63.1679   81.8550   13.8003 C.ar    1  UNL1        0.1677
     15 O          63.0016   80.3660   13.7278 O.3     1  UNL1       -0.5029
     16 H          62.5254   79.9146   14.3967 H       1  UNL1        0.2923
     17 C          63.7768   81.6903   10.2925 C.3     1  UNL1        0.2526
     18 O          64.5263   81.8113   11.5861 O.3     1  UNL1       -0.4684
     19 C          64.6577   91.4580   12.8878 C.2     1  UNL1        0.0367
     20 C          65.9765   92.1685   12.9632 C.2     1  UNL1        0.0032
     21 C          66.4901   92.9247   11.7739 C.ar    1  UNL1        0.0033
     22 C          67.4509   92.2697   10.8264 C.ar    1  UNL1        0.0033
     23 C          67.9645   93.0259    9.6371 C.ar    1  UNL1        0.0398
     24 C          67.5173   94.4371    9.3954 C.ar    1  UNL1        0.1677
     25 O          68.0309   95.1933    8.2061 O.3     1  UNL1       -0.5029
     26 C          66.5565   95.0921   10.3429 C.ar    1  UNL1        0.1721
     27 C          66.0429   94.3359   11.5322 C.ar    1  UNL1        0.0400
     28 H          68.6311   94.7842    7.6142 H       1  UNL1        0.2923
     29 O          66.1093   96.5034   10.1012 O.3     1  UNL1       -0.4684
     30 C          65.3824   96.8536    8.8367 C.3     1  UNL1        0.2526
@<TRIPOS>BOND
     1    17    18    1
     2    18     9    1
     3     9    10   ar
     4    10    11   ar
     5    11     7    1
     6     7     8    2
     7     8     5    1
     8     5     6    2
     9     5     1    1
    10     1     2    2
    11     2     3    1
    12     2    19    1
    13    19    20    2
    14    20    21    1
    15    21    22   ar
    16    22    23   ar
    17    23    24   ar
    18    24    25    1
    19    24    26   ar
    20    26    29    1
    21    29    30    1
    22    26    27   ar
    23    11    12   ar
    24    12    13   ar
    25    13    14   ar
    26    14    15    1
    27    14     9   ar
    28    27    21   ar
    29     3     4    1
    30    25    28    1
    31    15    16    1
@<TRIPOS>MOLECULE
*****
 30 31 0 0 0
SMALL
GASTEIGER

@<TRIPOS>ATOM
      1 C          64.2594   87.6370   14.9197 C.2     1  UNL1        0.0786
      2 C          63.6036   88.9103   15.3654 C.2     1  UNL1        0.1369
      3 O          62.5953   88.8859   16.4757 O.2     1  UNL1       -0.5054
      4 H          62.3751   88.0752   16.8908 H       1  UNL1        0.2922
      5 C          63.9069   86.3393   15.5842 C.2     1  UNL1        0.1988
      6 O          63.6508   86.2985   17.0617 O.2     1  UNL1       -0.2865
      7 C          63.5738   85.1620   13.2922 C.2     1  UNL1        0.0034
      8 C          63.8103   85.0824   14.7713 C.2     1  UNL1        0.0421
      9 C          62.7835   81.4103   12.2676 C.ar    1  UNL1        0.1721
     10 C          62.8800   82.6672   13.0804 C.ar    1  UNL1        0.0400
     11 C          63.4773   83.9050   12.4794 C.ar    1  UNL1        0.0033
     12 C          63.9780   83.8858   11.0656 C.ar    1  UNL1        0.0033
     13 C          63.8815   82.6289   10.2528 C.ar    1  UNL1        0.0398
     14 C          63.2842   81.3911   10.8538 C.ar    1  UNL1        0.1677
     15 O          63.1877   80.1341   10.0409 O.3     1  UNL1       -0.5029
     16 H          63.5005   80.1221    9.1578 H       1  UNL1        0.2923
     17 C          61.1513   80.2872   13.9483 C.3     1  UNL1        0.2526
     18 O          62.1862   80.1725   12.8686 O.3     1  UNL1       -0.4684
     19 C          63.9561   90.2081   14.7009 C.2     1  UNL1        0.0367
     20 C          65.3893   90.5303   14.3975 C.2     1  UNL1        0.0032
     21 C          65.7418   91.8281   13.7330 C.ar    1  UNL1        0.0033
     22 C          66.2465   92.9779   14.5533 C.ar    1  UNL1        0.0033
     23 C          66.5990   94.2757   13.8888 C.ar    1  UNL1        0.0398
     24 C          66.4468   94.4235   12.4039 C.ar    1  UNL1        0.1677
     25 O          66.7993   95.7213   11.7394 O.3     1  UNL1       -0.5029
     26 C          65.9421   93.2736   11.5836 C.ar    1  UNL1        0.1721
     27 C          65.5896   91.9759   12.2481 C.ar    1  UNL1        0.0400
     28 H          67.1146   96.4396   12.2518 H       1  UNL1        0.2923
     29 O          65.7900   93.4215   10.0986 O.3     1  UNL1       -0.4684
     30 C          67.0005   93.6295    9.2376 C.3     1  UNL1        0.2526
@<TRIPOS>BOND
     1    17    18    1
     2    18     9    1
     3     9    10   ar
     4    10    11   ar
     5    11     7    1
     6     7     8    2
     7     8     5    1
     8     5     6    2
     9     5     1    1
    10     1     2    2
    11     2     3    1
    12     2    19    1
    13    19    20    2
    14    20    21    1
    15    21    22   ar
    16    22    23   ar
    17    23    24   ar
    18    24    25    1
    19    24    26   ar
    20    26    29    1
    21    29    30    1
    22    26    27   ar
    23    11    12   ar
    24    12    13   ar
    25    13    14   ar
    26    14    15    1
    27    14     9   ar
    28    27    21   ar
    29     3     4    1
    30    25    28    1
    31    15    16    1
