@<TRIPOS>MOLECULE
*****
 33 38 0 0 0
SMALL
GASTEIGER

@<TRIPOS>ATOM
      1 C          62.8011   90.8535   11.7944 C.3     1  UNL1        0.0749
      2 C          64.0834   91.6240   11.6849 C.3     1  UNL1        0.0444
      3 C          65.0395   91.6572   12.8402 C.ar    1  UNL1       -0.0101
      4 C          64.7133   90.9198   14.1050 C.ar    1  UNL1       -0.0091
      5 C          65.6695   90.9530   15.2604 C.ar    1  UNL1       -0.0032
      6 C          66.9517   91.7236   15.1508 C.ar    1  UNL1        0.0010
      7 C          67.2779   92.4609   13.8859 C.ar    1  UNL1        0.0142
      8 C          66.3218   92.4278   12.7306 C.ar    1  UNL1        0.0436
      9 C          63.4311   90.1493   14.2146 C.3     1  UNL1        0.0954
     10 N          62.4750   90.1161   13.0593 N.3     1  UNL1       -0.2934
     11 H          61.5895   90.4915   13.3990 H       1  UNL1        0.1236
     12 N          66.6480   93.1652   11.4658 N.pl3   1  UNL1       -0.3049
     13 C          67.4972   92.5131   10.4152 C.3     1  UNL1        0.1081
     14 C          67.8233   93.2504    9.1503 C.3     1  UNL1        0.0938
     15 N          67.3003   94.6399    8.9360 N.3     1  UNL1       -0.2709
     16 C          67.4546   95.6062    7.7992 C.3     1  UNL1        0.0722
     17 C          66.7008   96.8555    8.1471 C.3     1  UNL1        0.0188
     18 C          66.0806   96.6612    9.4990 C.3     1  UNL1        0.0191
     19 C          66.4511   95.2919    9.9866 C.3     1  UNL1        0.0774
     20 C          66.1249   94.5546   11.2515 C.3     1  UNL1        0.1067
     21 C          61.8450   90.8203   10.6391 C.3     1  UNL1        0.0886
     22 C          59.4643   90.3407   11.5623 C.3     1  UNL1        0.0899
     23 N          60.6263   89.9478   10.6990 N.3     1  UNL1       -0.2667
     24 C          60.5696   88.6824    9.8955 C.3     1  UNL1        0.0978
     25 C          59.7972   88.6441    8.6102 C.3     1  UNL1        0.0224
     26 C          59.7405   87.3787    7.8067 C.3     1  UNL1        0.0065
     27 C          60.4562   86.1517    8.2885 C.3     1  UNL1        0.0277
     28 C          61.2287   86.1900    9.5738 C.ar    1  UNL1       -0.0073
     29 C          61.9444   84.9629   10.0555 C.ar    1  UNL1       -0.0015
     30 C          62.7167   85.0013   11.3408 C.ar    1  UNL1        0.0203
     31 C          62.7734   86.2667   12.1443 C.ar    1  UNL1        0.0985
     32 N          62.0577   87.4937   11.6625 N.ar    1  UNL1       -0.2471
     33 C          61.2854   87.4553   10.3773 C.ar    1  UNL1        0.0695
@<TRIPOS>BOND
     1    22    23    1
     2    23    21    1
     3     1    21    1
     4     1     2    1
     5     2     3    1
     6     3     4   ar
     7     4     5   ar
     8     5     6   ar
     9     6     7   ar
    10     7     8   ar
    11     8    12    1
    12    12    13    1
    13    13    14    1
    14    14    15    1
    15    15    16    1
    16    16    17    1
    17    17    18    1
    18    19    18    1
    19    19    20    1
    20     4     9    1
    21     9    10    1
    22    24    23    1
    23    24    25    1
    24    25    26    1
    25    26    27    1
    26    27    28    1
    27    28    29   ar
    28    29    30   ar
    29    30    31   ar
    30    31    32   ar
    31    32    33   ar
    32    10     1    1
    33    33    24    1
    34     8     3   ar
    35    20    12    1
    36    33    28   ar
    37    19    15    1
    38    10    11    1
@<TRIPOS>MOLECULE
*****
 33 38 0 0 0
SMALL
GASTEIGER

@<TRIPOS>ATOM
      1 C          63.1545   90.7649   12.5331 C.3     1  UNL1        0.0749
      2 C          64.3060   91.7036   12.3263 C.3     1  UNL1        0.0444
      3 C          65.1871   92.0757   13.4817 C.ar    1  UNL1       -0.0101
      4 C          64.9168   91.5090   14.8440 C.ar    1  UNL1       -0.0091
      5 C          65.7981   91.8811   15.9995 C.ar    1  UNL1       -0.0032
      6 C          66.9496   92.8198   15.7926 C.ar    1  UNL1        0.0010
      7 C          67.2199   93.3865   14.4303 C.ar    1  UNL1        0.0142
      8 C          66.3387   93.0144   13.2749 C.ar    1  UNL1        0.0436
      9 C          63.7653   90.5703   15.0509 C.3     1  UNL1        0.0954
     10 N          62.8841   90.1983   13.8954 N.3     1  UNL1       -0.2934
     11 H          61.9356   90.4763   14.1471 H       1  UNL1        0.1236
     12 N          66.6091   93.5811   11.9126 N.pl3   1  UNL1       -0.3049
     13 C          67.3457   92.7638   10.8930 C.3     1  UNL1        0.1081
     14 C          67.6161   93.3305    9.5307 C.3     1  UNL1        0.0938
     15 N          67.1497   94.7144    9.1880 N.3     1  UNL1       -0.2709
     16 C          67.2698   95.5328    7.9368 C.3     1  UNL1        0.0722
     17 C          66.6073   96.8559    8.1830 C.3     1  UNL1        0.0188
     18 C          66.0778   96.8551    9.5864 C.3     1  UNL1        0.0191
     19 C          66.4131   95.5316   10.2076 C.3     1  UNL1        0.0774
     20 C          66.1428   94.9649   11.5699 C.3     1  UNL1        0.1067
     21 C          62.2732   90.3928   11.3777 C.3     1  UNL1        0.0886
     22 C          59.9722   89.6168   12.3014 C.3     1  UNL1        0.0899
     23 N          61.2324   89.3253   11.5416 N.3     1  UNL1       -0.2667
     24 C          61.4515   87.9663   10.9459 C.3     1  UNL1        0.0978
     25 C          62.3324   86.9739   11.6452 C.3     1  UNL1        0.0224
     26 C          62.5516   85.6149   11.0495 C.3     1  UNL1        0.0065
     27 C          61.8898   85.2482    9.7543 C.3     1  UNL1        0.0277
     28 C          61.0088   86.2405    9.0548 C.ar    1  UNL1       -0.0073
     29 C          60.3471   85.8738    7.7597 C.ar    1  UNL1       -0.0015
     30 C          59.4661   86.8661    7.0603 C.ar    1  UNL1        0.0203
     31 C          59.2470   88.2252    7.6560 C.ar    1  UNL1        0.0985
     32 N          59.9087   88.5919    8.9512 N.ar    1  UNL1       -0.2471
     33 C          60.7897   87.5996    9.6506 C.ar    1  UNL1        0.0695
@<TRIPOS>BOND
     1    22    23    1
     2    23    21    1
     3     1    21    1
     4     1     2    1
     5     2     3    1
     6     3     4   ar
     7     4     5   ar
     8     5     6   ar
     9     6     7   ar
    10     7     8   ar
    11     8    12    1
    12    12    13    1
    13    13    14    1
    14    14    15    1
    15    15    16    1
    16    16    17    1
    17    17    18    1
    18    19    18    1
    19    19    20    1
    20     4     9    1
    21     9    10    1
    22    24    23    1
    23    24    25    1
    24    25    26    1
    25    26    27    1
    26    27    28    1
    27    28    29   ar
    28    29    30   ar
    29    30    31   ar
    30    31    32   ar
    31    32    33   ar
    32    10     1    1
    33    33    24    1
    34     8     3   ar
    35    20    12    1
    36    33    28   ar
    37    19    15    1
    38    10    11    1
@<TRIPOS>MOLECULE
*****
 33 38 0 0 0
SMALL
GASTEIGER

@<TRIPOS>ATOM
      1 C          63.8280   91.5995   10.9348 C.3     1  UNL1        0.0749
      2 C          64.1077   91.1391   12.3347 C.3     1  UNL1        0.0444
      3 C          65.0898   91.8859   13.1877 C.ar    1  UNL1       -0.0101
      4 C          65.7922   93.0932   12.6408 C.ar    1  UNL1       -0.0091
      5 C          66.7744   93.8400   13.4939 C.ar    1  UNL1       -0.0032
      6 C          67.0540   93.3796   14.8938 C.ar    1  UNL1        0.0010
      7 C          66.3516   92.1723   15.4407 C.ar    1  UNL1        0.0142
      8 C          65.3695   91.4255   14.5877 C.ar    1  UNL1        0.0436
      9 C          65.5125   93.5536   11.2409 C.3     1  UNL1        0.0954
     10 N          64.5304   92.8068   10.3880 N.3     1  UNL1       -0.2934
     11 H          65.0354   92.5019    9.5558 H       1  UNL1        0.1236
     12 N          64.6670   90.2182   15.1346 N.pl3   1  UNL1       -0.3049
     13 C          63.6516   90.3725   16.2278 C.3     1  UNL1        0.1081
     14 C          62.9491   89.1652   16.7747 C.3     1  UNL1        0.0938
     15 N          63.2622   87.8037   16.2284 N.3     1  UNL1       -0.2709
     16 C          62.7345   86.4409   16.5665 C.3     1  UNL1        0.0722
     17 C          63.4239   85.4445   15.6823 C.3     1  UNL1        0.0188
     18 C          64.3776   86.1914   14.7977 C.3     1  UNL1        0.0191
     19 C          64.2776   87.6495   15.1352 C.3     1  UNL1        0.0774
     20 C          64.9800   88.8568   14.5883 C.3     1  UNL1        0.1067
     21 C          62.8458   90.8527   10.0818 C.3     1  UNL1        0.0886
     22 C          60.7108   90.7291   11.5570 C.3     1  UNL1        0.0899
     23 N          61.7552   90.0474   10.7236 N.3     1  UNL1       -0.2667
     24 C          61.7089   88.5604   10.5321 C.3     1  UNL1        0.0978
     25 C          62.4908   87.6621   11.4440 C.3     1  UNL1        0.0224
     26 C          62.4446   86.1751   11.2524 C.3     1  UNL1        0.0065
     27 C          61.6164   85.5864   10.1490 C.3     1  UNL1        0.0277
     28 C          60.8344   86.4848    9.2371 C.ar    1  UNL1       -0.0073
     29 C          60.0063   85.8961    8.1337 C.ar    1  UNL1       -0.0015
     30 C          59.2244   86.7944    7.2218 C.ar    1  UNL1        0.0203
     31 C          59.2706   88.2814    7.4133 C.ar    1  UNL1        0.0985
     32 N          60.0988   88.8701    8.5167 N.ar    1  UNL1       -0.2471
     33 C          60.8807   87.9718    9.4286 C.ar    1  UNL1        0.0695
@<TRIPOS>BOND
     1    22    23    1
     2    23    21    1
     3     1    21    1
     4     1     2    1
     5     2     3    1
     6     3     4   ar
     7     4     5   ar
     8     5     6   ar
     9     6     7   ar
    10     7     8   ar
    11     8    12    1
    12    12    13    1
    13    13    14    1
    14    14    15    1
    15    15    16    1
    16    16    17    1
    17    17    18    1
    18    19    18    1
    19    19    20    1
    20     4     9    1
    21     9    10    1
    22    24    23    1
    23    24    25    1
    24    25    26    1
    25    26    27    1
    26    27    28    1
    27    28    29   ar
    28    29    30   ar
    29    30    31   ar
    30    31    32   ar
    31    32    33   ar
    32    10     1    1
    33    33    24    1
    34     8     3   ar
    35    20    12    1
    36    33    28   ar
    37    19    15    1
    38    10    11    1
@<TRIPOS>MOLECULE
*****
 33 38 0 0 0
SMALL
GASTEIGER

@<TRIPOS>ATOM
      1 C          62.3516   90.8030   10.9067 C.3     1  UNL1        0.0749
      2 C          63.0205   90.4626   12.2054 C.3     1  UNL1        0.0444
      3 C          64.3623   91.0472   12.5336 C.ar    1  UNL1       -0.0101
      4 C          65.0352   91.9722   11.5633 C.ar    1  UNL1       -0.0091
      5 C          66.3770   92.5568   11.8916 C.ar    1  UNL1       -0.0032
      6 C          67.0460   92.2164   13.1903 C.ar    1  UNL1        0.0010
      7 C          66.3731   91.2914   14.1606 C.ar    1  UNL1        0.0142
      8 C          65.0313   90.7068   13.8324 C.ar    1  UNL1        0.0436
      9 C          64.3662   92.3126   10.2646 C.3     1  UNL1        0.0954
     10 N          63.0244   91.7280    9.9363 N.3     1  UNL1       -0.2934
     11 H          63.1340   91.2107    9.0641 H       1  UNL1        0.1236
     12 N          64.3585   89.7818   14.8028 N.pl3   1  UNL1       -0.3049
     13 C          63.5093   90.3405   15.9059 C.3     1  UNL1        0.1081
     14 C          62.8365   89.4155   16.8763 C.3     1  UNL1        0.0938
     15 N          63.0128   87.9318   16.7435 N.3     1  UNL1       -0.2709
     16 C          62.4778   86.7819   17.5444 C.3     1  UNL1        0.0722
     17 C          62.9963   85.5125   16.9363 C.3     1  UNL1        0.0188
     18 C          63.8518   85.8779   15.7596 C.3     1  UNL1        0.0191
     19 C          63.8620   87.3731   15.6405 C.3     1  UNL1        0.0774
     20 C          64.5348   88.2981   14.6701 C.3     1  UNL1        0.1067
     21 C          61.0097   90.2184   10.5784 C.3     1  UNL1        0.0886
     22 C          59.9750   88.5481   12.2782 C.3     1  UNL1        0.0899
     23 N          60.6853   88.8111   10.9834 N.3     1  UNL1       -0.2667
     24 C          61.0712   87.6667   10.0938 C.3     1  UNL1        0.0978
     25 C          60.6268   87.6475    8.6613 C.3     1  UNL1        0.0224
     26 C          61.0127   86.5031    7.7716 C.3     1  UNL1        0.0065
     27 C          61.8428   85.3779    8.3145 C.3     1  UNL1        0.0277
     28 C          62.2872   85.3971    9.7470 C.ar    1  UNL1       -0.0073
     29 C          63.1174   84.2719   10.2899 C.ar    1  UNL1       -0.0015
     30 C          63.5618   84.2911   11.7224 C.ar    1  UNL1        0.0203
     31 C          63.1759   85.4355   12.6121 C.ar    1  UNL1        0.0985
     32 N          62.3457   86.5607   12.0692 N.ar    1  UNL1       -0.2471
     33 C          61.9014   86.5415   10.6367 C.ar    1  UNL1        0.0695
@<TRIPOS>BOND
     1    22    23    1
     2    23    21    1
     3     1    21    1
     4     1     2    1
     5     2     3    1
     6     3     4   ar
     7     4     5   ar
     8     5     6   ar
     9     6     7   ar
    10     7     8   ar
    11     8    12    1
    12    12    13    1
    13    13    14    1
    14    14    15    1
    15    15    16    1
    16    16    17    1
    17    17    18    1
    18    19    18    1
    19    19    20    1
    20     4     9    1
    21     9    10    1
    22    24    23    1
    23    24    25    1
    24    25    26    1
    25    26    27    1
    26    27    28    1
    27    28    29   ar
    28    29    30   ar
    29    30    31   ar
    30    31    32   ar
    31    32    33   ar
    32    10     1    1
    33    33    24    1
    34     8     3   ar
    35    20    12    1
    36    33    28   ar
    37    19    15    1
    38    10    11    1
@<TRIPOS>MOLECULE
*****
 33 38 0 0 0
SMALL
GASTEIGER

@<TRIPOS>ATOM
      1 C          64.4624   86.3509   14.6898 C.3     1  UNL1        0.0749
      2 C          63.7132   85.9447   13.4554 C.3     1  UNL1        0.0444
      3 C          63.3976   84.4988   13.2115 C.ar    1  UNL1       -0.0101
      4 C          63.8311   83.4590   14.2019 C.ar    1  UNL1       -0.0091
      5 C          63.5154   82.0130   13.9579 C.ar    1  UNL1       -0.0032
      6 C          62.7662   81.6068   12.7235 C.ar    1  UNL1        0.0010
      7 C          62.3327   82.6466   11.7331 C.ar    1  UNL1        0.0142
      8 C          62.6483   84.0926   11.9771 C.ar    1  UNL1        0.0436
      9 C          64.5803   83.8652   15.4362 C.3     1  UNL1        0.0954
     10 N          64.8959   85.3111   15.6802 N.3     1  UNL1       -0.2934
     11 H          65.9106   85.3822   15.7566 H       1  UNL1        0.1236
     12 N          62.2148   85.1323   10.9866 N.pl3   1  UNL1       -0.3049
     13 C          62.7531   85.1053    9.5868 C.3     1  UNL1        0.1081
     14 C          62.3196   86.1451    8.5964 C.3     1  UNL1        0.0938
     15 N          61.3477   87.2119    9.0058 N.3     1  UNL1       -0.2709
     16 C          60.7424   88.3602    8.2542 C.3     1  UNL1        0.0722
     17 C          59.8300   89.0969    9.1895 C.3     1  UNL1        0.0188
     18 C          59.8714   88.4038   10.5192 C.3     1  UNL1        0.0191
     19 C          60.8094   87.2388   10.4056 C.3     1  UNL1        0.0774
     20 C          61.2430   86.1990   11.3960 C.3     1  UNL1        0.1067
     21 C          64.7781   87.7969   14.9338 C.3     1  UNL1        0.0886
     22 C          62.6189   89.0234   15.6980 C.3     1  UNL1        0.0899
     23 N          63.7279   88.8430   14.7041 N.3     1  UNL1       -0.2667
     24 C          63.7866   89.7087   13.4805 C.3     1  UNL1        0.0978
     25 C          62.9754   89.3526   12.2702 C.3     1  UNL1        0.0224
     26 C          63.0341   90.2183   11.0466 C.3     1  UNL1        0.0065
     27 C          63.9040   91.4402   11.0334 C.3     1  UNL1        0.0277
     28 C          64.7153   91.7963   12.2438 C.ar    1  UNL1       -0.0073
     29 C          65.5853   93.0182   12.2307 C.ar    1  UNL1       -0.0015
     30 C          66.3965   93.3743   13.4410 C.ar    1  UNL1        0.0203
     31 C          66.3378   92.5086   14.6646 C.ar    1  UNL1        0.0985
     32 N          65.4678   91.2867   14.6778 N.ar    1  UNL1       -0.2471
     33 C          64.6566   90.9306   13.4674 C.ar    1  UNL1        0.0695
@<TRIPOS>BOND
     1    22    23    1
     2    23    21    1
     3     1    21    1
     4     1     2    1
     5     2     3    1
     6     3     4   ar
     7     4     5   ar
     8     5     6   ar
     9     6     7   ar
    10     7     8   ar
    11     8    12    1
    12    12    13    1
    13    13    14    1
    14    14    15    1
    15    15    16    1
    16    16    17    1
    17    17    18    1
    18    19    18    1
    19    19    20    1
    20     4     9    1
    21     9    10    1
    22    24    23    1
    23    24    25    1
    24    25    26    1
    25    26    27    1
    26    27    28    1
    27    28    29   ar
    28    29    30   ar
    29    30    31   ar
    30    31    32   ar
    31    32    33   ar
    32    10     1    1
    33    33    24    1
    34     8     3   ar
    35    20    12    1
    36    33    28   ar
    37    19    15    1
    38    10    11    1
@<TRIPOS>MOLECULE
*****
 33 38 0 0 0
SMALL
GASTEIGER

@<TRIPOS>ATOM
      1 C          61.4167   89.5774   11.7123 C.3     1  UNL1        0.0749
      2 C          61.6390   88.1983   11.1659 C.3     1  UNL1        0.0444
      3 C          61.0061   87.7952    9.8671 C.ar    1  UNL1       -0.0101
      4 C          60.1510   88.7712    9.1147 C.ar    1  UNL1       -0.0091
      5 C          59.5181   88.3680    7.8158 C.ar    1  UNL1       -0.0032
      6 C          59.7404   86.9889    7.2694 C.ar    1  UNL1        0.0010
      7 C          60.5955   86.0129    8.0218 C.ar    1  UNL1        0.0142
      8 C          61.2284   86.4160    9.3207 C.ar    1  UNL1        0.0436
      9 C          59.9287   90.1503    9.6610 C.3     1  UNL1        0.0954
     10 N          60.5616   90.5534   10.9599 N.3     1  UNL1       -0.2934
     11 H          59.8028   90.8237   11.5857 H       1  UNL1        0.1236
     12 N          62.0835   85.4400   10.0731 N.pl3   1  UNL1       -0.3049
     13 C          63.1070   84.6215    9.3433 C.3     1  UNL1        0.1081
     14 C          63.9622   83.6454   10.0957 C.3     1  UNL1        0.0938
     15 N          63.7938   83.4880   11.5779 N.3     1  UNL1       -0.2709
     16 C          64.4872   82.6127   12.5794 C.3     1  UNL1        0.0722
     17 C          63.8923   82.8902   13.9281 C.3     1  UNL1        0.0188
     18 C          62.8313   83.9371   13.7602 C.3     1  UNL1        0.0191
     19 C          62.7704   84.3065   12.3077 C.3     1  UNL1        0.0774
     20 C          61.9152   85.2825   11.5552 C.3     1  UNL1        0.1067
     21 C          62.0496   89.9806   13.0112 C.3     1  UNL1        0.0886
     22 C          64.2281   88.8139   13.8130 C.3     1  UNL1        0.0899
     23 N          63.5429   89.9731   13.1520 N.3     1  UNL1       -0.2667
     24 C          64.3511   91.1248   12.6320 C.3     1  UNL1        0.0978
     25 C          64.2574   91.5147   11.1866 C.3     1  UNL1        0.0224
     26 C          65.0656   92.6663   10.6665 C.3     1  UNL1        0.0065
     27 C          65.9674   93.4282   11.5918 C.3     1  UNL1        0.0277
     28 C          66.0611   93.0383   13.0373 C.ar    1  UNL1       -0.0073
     29 C          66.9630   93.8001   13.9626 C.ar    1  UNL1       -0.0015
     30 C          67.0566   93.4102   15.4080 C.ar    1  UNL1        0.0203
     31 C          66.2485   92.2586   15.9281 C.ar    1  UNL1        0.0985
     32 N          65.3466   91.4968   15.0028 N.ar    1  UNL1       -0.2471
     33 C          65.2530   91.8866   13.5574 C.ar    1  UNL1        0.0695
@<TRIPOS>BOND
     1    22    23    1
     2    23    21    1
     3     1    21    1
     4     1     2    1
     5     2     3    1
     6     3     4   ar
     7     4     5   ar
     8     5     6   ar
     9     6     7   ar
    10     7     8   ar
    11     8    12    1
    12    12    13    1
    13    13    14    1
    14    14    15    1
    15    15    16    1
    16    16    17    1
    17    17    18    1
    18    19    18    1
    19    19    20    1
    20     4     9    1
    21     9    10    1
    22    24    23    1
    23    24    25    1
    24    25    26    1
    25    26    27    1
    26    27    28    1
    27    28    29   ar
    28    29    30   ar
    29    30    31   ar
    30    31    32   ar
    31    32    33   ar
    32    10     1    1
    33    33    24    1
    34     8     3   ar
    35    20    12    1
    36    33    28   ar
    37    19    15    1
    38    10    11    1
@<TRIPOS>MOLECULE
*****
 33 38 0 0 0
SMALL
GASTEIGER

@<TRIPOS>ATOM
      1 C          63.2077   89.2606   12.5497 C.3     1  UNL1        0.0749
      2 C          62.9136   87.9557   11.8710 C.3     1  UNL1        0.0444
      3 C          61.8847   87.8922   10.7813 C.ar    1  UNL1       -0.0101
      4 C          61.1500   89.1337   10.3703 C.ar    1  UNL1       -0.0091
      5 C          60.1211   89.0702    9.2806 C.ar    1  UNL1       -0.0032
      6 C          59.8270   87.7653    8.6020 C.ar    1  UNL1        0.0010
      7 C          60.5617   86.5238    9.0130 C.ar    1  UNL1        0.0142
      8 C          61.5906   86.5873   10.1026 C.ar    1  UNL1        0.0436
      9 C          61.4441   90.4386   11.0490 C.3     1  UNL1        0.0954
     10 N          62.4730   90.5021   12.1387 N.3     1  UNL1       -0.2934
     11 H          61.9991   90.8529   12.9710 H       1  UNL1        0.1236
     12 N          62.3253   85.3458   10.5136 N.pl3   1  UNL1       -0.3049
     13 C          63.2355   84.6562    9.5409 C.3     1  UNL1        0.1081
     14 C          63.9702   83.4148    9.9519 C.3     1  UNL1        0.0938
     15 N          63.7947   82.8628   11.3356 N.3     1  UNL1       -0.2709
     16 C          64.3831   81.6650   12.0205 C.3     1  UNL1        0.0722
     17 C          63.8365   81.6143   13.4164 C.3     1  UNL1        0.0188
     18 C          62.9104   82.7807   13.5943 C.3     1  UNL1        0.0191
     19 C          62.8846   83.5524   12.3083 C.3     1  UNL1        0.0774
     20 C          62.1498   84.7939   11.8973 C.3     1  UNL1        0.1067
     21 C          64.2366   89.3241   13.6394 C.3     1  UNL1        0.0886
     22 C          63.1407   90.4143   15.7276 C.3     1  UNL1        0.0899
     23 N          64.1878   90.4282   14.6535 N.3     1  UNL1       -0.2667
     24 C          65.1860   91.5462   14.5937 C.3     1  UNL1        0.0978
     25 C          65.9405   91.9449   15.8273 C.3     1  UNL1        0.0224
     26 C          66.9387   93.0629   15.7674 C.3     1  UNL1        0.0065
     27 C          67.1825   93.7823   14.4740 C.3     1  UNL1        0.0277
     28 C          66.4279   93.3836   13.2403 C.ar    1  UNL1       -0.0073
     29 C          66.6717   94.1030   11.9468 C.ar    1  UNL1       -0.0015
     30 C          65.9172   93.7044   10.7133 C.ar    1  UNL1        0.0203
     31 C          64.9190   92.5864   10.7731 C.ar    1  UNL1        0.0985
     32 N          64.6752   91.8670   12.0665 N.ar    1  UNL1       -0.2471
     33 C          65.4297   92.2656   13.3001 C.ar    1  UNL1        0.0695
@<TRIPOS>BOND
     1    22    23    1
     2    23    21    1
     3     1    21    1
     4     1     2    1
     5     2     3    1
     6     3     4   ar
     7     4     5   ar
     8     5     6   ar
     9     6     7   ar
    10     7     8   ar
    11     8    12    1
    12    12    13    1
    13    13    14    1
    14    14    15    1
    15    15    16    1
    16    16    17    1
    17    17    18    1
    18    19    18    1
    19    19    20    1
    20     4     9    1
    21     9    10    1
    22    24    23    1
    23    24    25    1
    24    25    26    1
    25    26    27    1
    26    27    28    1
    27    28    29   ar
    28    29    30   ar
    29    30    31   ar
    30    31    32   ar
    31    32    33   ar
    32    10     1    1
    33    33    24    1
    34     8     3   ar
    35    20    12    1
    36    33    28   ar
    37    19    15    1
    38    10    11    1
@<TRIPOS>MOLECULE
*****
 33 38 0 0 0
SMALL
GASTEIGER

@<TRIPOS>ATOM
      1 C          61.1523   87.0396   10.2477 C.3     1  UNL1        0.0749
      2 C          61.8011   86.2627   11.3547 C.3     1  UNL1        0.0444
      3 C          62.7377   85.1365   11.0316 C.ar    1  UNL1       -0.0101
      4 C          63.0254   84.7872    9.6015 C.ar    1  UNL1       -0.0091
      5 C          63.9621   83.6609    9.2784 C.ar    1  UNL1       -0.0032
      6 C          64.6109   82.8840   10.3854 C.ar    1  UNL1        0.0010
      7 C          64.3231   83.2334   11.8155 C.ar    1  UNL1        0.0142
      8 C          63.3865   84.3596   12.1386 C.ar    1  UNL1        0.0436
      9 C          62.3766   85.5641    8.4945 C.3     1  UNL1        0.0954
     10 N          61.4401   86.6903    8.8176 N.3     1  UNL1       -0.2934
     11 H          60.5452   86.4626    8.3843 H       1  UNL1        0.1236
     12 N          63.0987   84.7089   13.5687 N.pl3   1  UNL1       -0.3049
     13 C          62.3288   83.7551   14.4334 C.3     1  UNL1        0.1081
     14 C          62.0410   84.1045   15.8635 C.3     1  UNL1        0.0938
     15 N          62.5232   85.4075   16.4289 N.3     1  UNL1       -0.2709
     16 C          62.3920   86.0201   17.7918 C.3     1  UNL1        0.0722
     17 C          63.0808   87.3524   17.7694 C.3     1  UNL1        0.0188
     18 C          63.6377   87.5632   16.3927 C.3     1  UNL1        0.0191
     19 C          63.2931   86.3612   15.5642 C.3     1  UNL1        0.0774
     20 C          63.5809   86.0119   14.1341 C.3     1  UNL1        0.1067
     21 C          60.2157   88.1659   10.5708 C.3     1  UNL1        0.0886
     22 C          59.7587   89.3939   12.8143 C.3     1  UNL1        0.0899
     23 N          60.6037   89.1948   11.5910 N.3     1  UNL1       -0.2667
     24 C          61.8366   90.0246   11.3879 C.3     1  UNL1        0.0978
     25 C          62.1637   90.5611   10.0259 C.3     1  UNL1        0.0224
     26 C          63.3967   91.3909    9.8229 C.3     1  UNL1        0.0065
     27 C          64.3025   91.6842   10.9818 C.3     1  UNL1        0.0277
     28 C          63.9754   91.1478   12.3440 C.ar    1  UNL1       -0.0073
     29 C          64.8813   91.4412   13.5030 C.ar    1  UNL1       -0.0015
     30 C          64.5542   90.9048   14.8650 C.ar    1  UNL1        0.0203
     31 C          63.3212   90.0750   15.0681 C.ar    1  UNL1        0.0985
     32 N          62.4154   89.7816   13.9091 N.ar    1  UNL1       -0.2471
     33 C          62.7425   90.3180   12.5470 C.ar    1  UNL1        0.0695
@<TRIPOS>BOND
     1    22    23    1
     2    23    21    1
     3     1    21    1
     4     1     2    1
     5     2     3    1
     6     3     4   ar
     7     4     5   ar
     8     5     6   ar
     9     6     7   ar
    10     7     8   ar
    11     8    12    1
    12    12    13    1
    13    13    14    1
    14    14    15    1
    15    15    16    1
    16    16    17    1
    17    17    18    1
    18    19    18    1
    19    19    20    1
    20     4     9    1
    21     9    10    1
    22    24    23    1
    23    24    25    1
    24    25    26    1
    25    26    27    1
    26    27    28    1
    27    28    29   ar
    28    29    30   ar
    29    30    31   ar
    30    31    32   ar
    31    32    33   ar
    32    10     1    1
    33    33    24    1
    34     8     3   ar
    35    20    12    1
    36    33    28   ar
    37    19    15    1
    38    10    11    1
@<TRIPOS>MOLECULE
*****
 33 38 0 0 0
SMALL
GASTEIGER

@<TRIPOS>ATOM
      1 C          63.4446   86.8575   13.5104 C.3     1  UNL1        0.0749
      2 C          63.8611   88.2980   13.4721 C.3     1  UNL1        0.0444
      3 C          63.4491   89.1675   12.3215 C.ar    1  UNL1       -0.0101
      4 C          62.6205   88.5966   11.2091 C.ar    1  UNL1       -0.0091
      5 C          62.2084   89.4662   10.0584 C.ar    1  UNL1       -0.0032
      6 C          62.6249   90.9067   10.0201 C.ar    1  UNL1        0.0010
      7 C          63.4535   91.4776   11.1325 C.ar    1  UNL1        0.0142
      8 C          63.8656   90.6081   12.2832 C.ar    1  UNL1        0.0436
      9 C          62.2039   87.1561   11.2473 C.3     1  UNL1        0.0954
     10 N          62.6160   86.2866   12.3980 N.3     1  UNL1       -0.2934
     11 H          63.1467   85.5095   12.0045 H       1  UNL1        0.1236
     12 N          64.6942   91.1790   13.3956 N.pl3   1  UNL1       -0.3049
     13 C          64.0850   91.3965   14.7490 C.3     1  UNL1        0.1081
     14 C          64.9136   91.9675   15.8614 C.3     1  UNL1        0.0938
     15 N          66.3514   92.3208   15.6204 N.3     1  UNL1       -0.2709
     16 C          67.4075   92.8956   16.5172 C.3     1  UNL1        0.0722
     17 C          68.6694   93.0333   15.7180 C.3     1  UNL1        0.0188
     18 C          68.3931   92.5436   14.3274 C.3     1  UNL1        0.0191
     19 C          66.9605   92.1033   14.2671 C.3     1  UNL1        0.0774
     20 C          66.1319   91.5324   13.1546 C.3     1  UNL1        0.1067
     21 C          63.8567   85.9879   14.6611 C.3     1  UNL1        0.0886
     22 C          65.9538   84.4617   14.5099 C.3     1  UNL1        0.0899
     23 N          64.4686   84.6429   14.4032 N.3     1  UNL1       -0.2667
     24 C          63.5953   83.4791   14.0386 C.3     1  UNL1        0.0978
     25 C          62.6648   82.8914   15.0578 C.3     1  UNL1        0.0224
     26 C          61.7915   81.7275   14.6932 C.3     1  UNL1        0.0065
     27 C          61.8487   81.1514   13.3095 C.3     1  UNL1        0.0277
     28 C          62.7793   81.7391   12.2902 C.ar    1  UNL1       -0.0073
     29 C          62.8365   81.1630   10.9065 C.ar    1  UNL1       -0.0015
     30 C          63.7670   81.7507    9.8873 C.ar    1  UNL1        0.0203
     31 C          64.6402   82.9146   10.2519 C.ar    1  UNL1        0.0985
     32 N          64.5830   83.4907   11.6356 N.ar    1  UNL1       -0.2471
     33 C          63.6525   82.9030   12.6548 C.ar    1  UNL1        0.0695
@<TRIPOS>BOND
     1    22    23    1
     2    23    21    1
     3     1    21    1
     4     1     2    1
     5     2     3    1
     6     3     4   ar
     7     4     5   ar
     8     5     6   ar
     9     6     7   ar
    10     7     8   ar
    11     8    12    1
    12    12    13    1
    13    13    14    1
    14    14    15    1
    15    15    16    1
    16    16    17    1
    17    17    18    1
    18    19    18    1
    19    19    20    1
    20     4     9    1
    21     9    10    1
    22    24    23    1
    23    24    25    1
    24    25    26    1
    25    26    27    1
    26    27    28    1
    27    28    29   ar
    28    29    30   ar
    29    30    31   ar
    30    31    32   ar
    31    32    33   ar
    32    10     1    1
    33    33    24    1
    34     8     3   ar
    35    20    12    1
    36    33    28   ar
    37    19    15    1
    38    10    11    1
