@<TRIPOS>MOLECULE
*****
 31 33 0 0 0
SMALL
GASTEIGER

@<TRIPOS>ATOM
      1 C          64.3726   89.9060   14.9212 C.ar    1  UNL1        0.1334
      2 N          63.3597   89.8266   16.0247 N.ar    1  UNL1       -0.1408
      3 N          62.9711   88.3879   16.1945 N.ar    1  UNL1       -0.1408
      4 C          63.7437   87.5780   15.1959 C.ar    1  UNL1        0.1337
      5 S          64.6099   88.5163   14.4090 S.2     1  UNL1       -0.0455
      6 C          64.8936   91.5492   12.9773 C.ar    1  UNL1       -0.0241
      7 C          65.5533   92.7989   12.4743 C.ar    1  UNL1       -0.0261
      8 C          66.3518   93.6550   13.4121 C.ar    1  UNL1       -0.0046
      9 C          66.4906   93.2615   14.8528 C.ar    1  UNL1       -0.0003
     10 C          65.8309   92.0118   15.3558 C.ar    1  UNL1        0.0017
     11 C          65.0324   91.1557   14.4181 C.ar    1  UNL1        0.0214
     12 C          62.6273   90.9450   11.8597 C.3     1  UNL1        0.0050
     13 C          64.0950   90.6931   12.0396 C.3     1  UNL1        0.0261
     14 C          65.4145   93.1925   11.0335 C.3     1  UNL1        0.0264
     15 C          66.2746   94.2835   10.4678 C.3     1  UNL1        0.0106
     16 C          67.2354   93.9809    9.3563 C.3     1  UNL1        0.0421
     17 C          68.1767   92.8190    9.4741 C.2     1  UNL1        0.0503
     18 O          68.6953   92.1457    8.2381 O.co2   1  UNL1       -0.5492
     19 O          68.5993   92.3304   10.8278 O.co2   1  UNL1       -0.5492
     20 C          63.6642   86.0910   15.0160 C.ar    1  UNL1        0.0265
     21 C          63.1617   85.2261   16.1338 C.ar    1  UNL1        0.0052
     22 C          63.0821   83.7390   15.9538 C.ar    1  UNL1        0.0377
     23 C          63.5050   83.1169   14.6560 C.ar    1  UNL1        0.1479
     24 C          64.0075   83.9818   13.5382 C.ar    1  UNL1        0.1023
     25 C          64.0870   85.4688   13.7182 C.ar    1  UNL1        0.0154
     26 C          64.4304   83.3597   12.2405 C.1     1  UNL1        0.1035
     27 N          64.8532   82.7376   10.9428 N.1     1  UNL1       -0.1907
     28 O          63.4255   81.6299   14.4761 O.3     1  UNL1       -0.4785
     29 C          62.3105   81.0304   13.6714 C.3     1  UNL1        0.1662
     30 C          62.6070   80.3558   12.3649 C.3     1  UNL1        0.0472
     31 C          60.8989   81.1055   14.1732 C.3     1  UNL1        0.0472
@<TRIPOS>UNITY_ATOM_ATTR
18 1
charge -1
@<TRIPOS>BOND
     1    12    13    1
     2    13     6    1
     3     6     7   ar
     4     7    14    1
     5    14    15    1
     6    15    16    1
     7    16    17    1
     8    17    18   ar
     9    17    19   ar
    10     7     8   ar
    11     8     9   ar
    12     9    10   ar
    13    10    11   ar
    14    11     1    1
    15     1     2   ar
    16     2     3   ar
    17     3     4   ar
    18     4    20    1
    19    20    21   ar
    20    21    22   ar
    21    22    23   ar
    22    23    28    1
    23    28    29    1
    24    29    30    1
    25    29    31    1
    26    23    24   ar
    27    24    26    1
    28    26    27    3
    29    24    25   ar
    30     4     5   ar
    31    11     6   ar
    32     5     1   ar
    33    25    20   ar
@<TRIPOS>MOLECULE
*****
 31 33 0 0 0
SMALL
GASTEIGER

@<TRIPOS>ATOM
      1 C          62.3139   88.0381   11.1132 C.ar    1  UNL1        0.1334
      2 N          62.6384   87.1763   12.2973 N.ar    1  UNL1       -0.1408
      3 N          63.4912   87.9788   13.2348 N.ar    1  UNL1       -0.1408
      4 C          63.6938   89.3365   12.6301 C.ar    1  UNL1        0.1337
      5 S          62.9662   89.3731   11.3189 S.2     1  UNL1       -0.0455
      6 C          60.6162   88.6485    9.2437 C.ar    1  UNL1       -0.0241
      7 C          59.7854   88.2459    8.0615 C.ar    1  UNL1       -0.0261
      8 C          59.8213   86.8303    7.5666 C.ar    1  UNL1       -0.0046
      9 C          60.6881   85.8173    8.2540 C.ar    1  UNL1       -0.0003
     10 C          61.5190   86.2199    9.4362 C.ar    1  UNL1        0.0017
     11 C          61.4830   87.6355    9.9310 C.ar    1  UNL1        0.0214
     12 C          59.6800   90.4373   10.8787 C.3     1  UNL1        0.0050
     13 C          60.5802   90.0641    9.7385 C.3     1  UNL1        0.0261
     14 C          58.9185   89.2589    7.3741 C.3     1  UNL1        0.0264
     15 C          59.1457   89.5819    5.9270 C.3     1  UNL1        0.0106
     16 C          59.4781   90.9855    5.5151 C.3     1  UNL1        0.0421
     17 C          58.4873   91.7905    4.7275 C.2     1  UNL1        0.0503
     18 O          58.9558   92.6604    3.5988 O.co2   1  UNL1       -0.5492
     19 O          57.0281   91.7257    5.0686 O.co2   1  UNL1       -0.5492
     20 C          64.4850   90.4602   13.2310 C.ar    1  UNL1        0.0265
     21 C          64.7796   90.4673   14.7018 C.ar    1  UNL1        0.0052
     22 C          65.5708   91.5910   15.3028 C.ar    1  UNL1        0.0377
     23 C          66.0675   92.7076   14.4330 C.ar    1  UNL1        0.1479
     24 C          65.7730   92.7005   12.9622 C.ar    1  UNL1        0.1023
     25 C          64.9817   91.5768   12.3612 C.ar    1  UNL1        0.0154
     26 C          66.2697   93.8170   12.0924 C.1     1  UNL1        0.1035
     27 N          66.7664   94.9336   11.2226 N.1     1  UNL1       -0.1907
     28 O          66.8588   93.8313   15.0339 O.3     1  UNL1       -0.4785
     29 C          68.1861   93.5546   15.6754 C.3     1  UNL1        0.1662
     30 C          68.6079   92.1409   15.9468 C.3     1  UNL1        0.0472
     31 C          69.0918   94.6916   16.0457 C.3     1  UNL1        0.0472
@<TRIPOS>UNITY_ATOM_ATTR
18 1
charge -1
@<TRIPOS>BOND
     1    12    13    1
     2    13     6    1
     3     6     7   ar
     4     7    14    1
     5    14    15    1
     6    15    16    1
     7    16    17    1
     8    17    18   ar
     9    17    19   ar
    10     7     8   ar
    11     8     9   ar
    12     9    10   ar
    13    10    11   ar
    14    11     1    1
    15     1     2   ar
    16     2     3   ar
    17     3     4   ar
    18     4    20    1
    19    20    21   ar
    20    21    22   ar
    21    22    23   ar
    22    23    28    1
    23    28    29    1
    24    29    30    1
    25    29    31    1
    26    23    24   ar
    27    24    26    1
    28    26    27    3
    29    24    25   ar
    30     4     5   ar
    31    11     6   ar
    32     5     1   ar
    33    25    20   ar
@<TRIPOS>MOLECULE
*****
 31 33 0 0 0
SMALL
GASTEIGER

@<TRIPOS>ATOM
      1 C          62.6622   85.6933   11.9875 C.ar    1  UNL1        0.1334
      2 N          61.5308   86.5291   11.4665 N.ar    1  UNL1       -0.1408
      3 N          61.8219   87.9625   11.7992 N.ar    1  UNL1       -0.1408
      4 C          63.1332   88.0125   12.5260 C.ar    1  UNL1        0.1337
      5 S          63.6525   86.6101   12.6423 S.2     1  UNL1       -0.0455
      6 C          62.4794   83.3331   13.0580 C.ar    1  UNL1       -0.0241
      7 C          62.5994   81.8422   12.9442 C.ar    1  UNL1       -0.0261
      8 C          63.0221   81.2208   11.6461 C.ar    1  UNL1       -0.0046
      9 C          63.3249   82.0901   10.4618 C.ar    1  UNL1       -0.0003
     10 C          63.2049   83.5809   10.5756 C.ar    1  UNL1        0.0017
     11 C          62.7821   84.2024   11.8737 C.ar    1  UNL1        0.0214
     12 C          63.0732   84.2197   15.4268 C.3     1  UNL1        0.0050
     13 C          62.0567   83.9546   14.3561 C.3     1  UNL1        0.0261
     14 C          62.2967   80.9728   14.1285 C.3     1  UNL1        0.0264
     15 C          61.1797   79.9741   14.0597 C.3     1  UNL1        0.0106
     16 C          59.7548   80.4353   14.1448 C.3     1  UNL1        0.0421
     17 C          58.7096   79.5366   14.7361 C.2     1  UNL1        0.0503
     18 O          57.7171   80.0852   15.7179 O.co2   1  UNL1       -0.5492
     19 O          58.6569   78.0893   14.3457 O.co2   1  UNL1       -0.5492
     20 C          63.8069   89.2481   13.0451 C.ar    1  UNL1        0.0265
     21 C          64.1514   89.3590   14.5008 C.ar    1  UNL1        0.0052
     22 C          64.8251   90.5945   15.0200 C.ar    1  UNL1        0.0377
     23 C          65.1543   91.7191   14.0835 C.ar    1  UNL1        0.1479
     24 C          64.8098   91.6082   12.6279 C.ar    1  UNL1        0.1023
     25 C          64.1361   90.3727   12.1087 C.ar    1  UNL1        0.0154
     26 C          65.1390   92.7328   11.6914 C.1     1  UNL1        0.1035
     27 N          65.4682   93.8573   10.7549 N.1     1  UNL1       -0.1907
     28 O          65.8280   92.9547   14.6027 O.3     1  UNL1       -0.4785
     29 C          67.3043   92.9486   14.8683 C.3     1  UNL1        0.1662
     30 C          68.2378   92.2849   13.8997 C.3     1  UNL1        0.0472
     31 C          67.8472   93.6062   16.1023 C.3     1  UNL1        0.0472
@<TRIPOS>UNITY_ATOM_ATTR
18 1
charge -1
@<TRIPOS>BOND
     1    12    13    1
     2    13     6    1
     3     6     7   ar
     4     7    14    1
     5    14    15    1
     6    15    16    1
     7    16    17    1
     8    17    18   ar
     9    17    19   ar
    10     7     8   ar
    11     8     9   ar
    12     9    10   ar
    13    10    11   ar
    14    11     1    1
    15     1     2   ar
    16     2     3   ar
    17     3     4   ar
    18     4    20    1
    19    20    21   ar
    20    21    22   ar
    21    22    23   ar
    22    23    28    1
    23    28    29    1
    24    29    30    1
    25    29    31    1
    26    23    24   ar
    27    24    26    1
    28    26    27    3
    29    24    25   ar
    30     4     5   ar
    31    11     6   ar
    32     5     1   ar
    33    25    20   ar
@<TRIPOS>MOLECULE
*****
 31 33 0 0 0
SMALL
GASTEIGER

@<TRIPOS>ATOM
      1 C          63.7508   86.8973   14.8214 C.ar    1  UNL1        0.1334
      2 N          63.1936   87.6253   16.0086 N.ar    1  UNL1       -0.1408
      3 N          63.5491   89.0761   15.8715 N.ar    1  UNL1       -0.1408
      4 C          64.3260   89.2448   14.5994 C.ar    1  UNL1        0.1337
      5 S          64.4506   87.8982   13.9505 S.2     1  UNL1       -0.0455
      6 C          63.2576   84.9431   13.1819 C.ar    1  UNL1       -0.0241
      7 C          63.1362   83.4725   12.9129 C.ar    1  UNL1       -0.0261
      8 C          63.3867   82.4853   14.0142 C.ar    1  UNL1       -0.0046
      9 C          63.7585   82.9689   15.3845 C.ar    1  UNL1       -0.0003
     10 C          63.8798   84.4395   15.6536 C.ar    1  UNL1        0.0017
     11 C          63.6294   85.4266   14.5523 C.ar    1  UNL1        0.0214
     12 C          61.6224   86.1058   11.5314 C.3     1  UNL1        0.0050
     13 C          63.0071   85.9302   12.0806 C.3     1  UNL1        0.0261
     14 C          62.7644   82.9889   11.5424 C.3     1  UNL1        0.0264
     15 C          63.6711   82.0463   10.8081 C.3     1  UNL1        0.0106
     16 C          63.1080   80.8168   10.1589 C.3     1  UNL1        0.0421
     17 C          62.7996   79.6053   10.9878 C.2     1  UNL1        0.0503
     18 O          62.7450   78.2510   10.3453 O.co2   1  UNL1       -0.5492
     19 O          62.5459   79.7482   12.4593 O.co2   1  UNL1       -0.5492
     20 C          64.8808   90.5337   14.0694 C.ar    1  UNL1        0.0265
     21 C          64.3654   91.0976   12.7786 C.ar    1  UNL1        0.0052
     22 C          64.9202   92.3865   12.2486 C.ar    1  UNL1        0.0377
     23 C          65.9905   93.1114   13.0095 C.ar    1  UNL1        0.1479
     24 C          66.5060   92.5475   14.3003 C.ar    1  UNL1        0.1023
     25 C          65.9511   91.2587   14.8303 C.ar    1  UNL1        0.0154
     26 C          67.5763   93.2725   15.0612 C.1     1  UNL1        0.1035
     27 N          68.6465   93.9974   15.8221 N.1     1  UNL1       -0.1907
     28 O          66.5454   94.4003   12.4795 O.3     1  UNL1       -0.4785
     29 C          66.4760   94.6993   11.0113 C.3     1  UNL1        0.1662
     30 C          65.6523   95.8522   10.5186 C.3     1  UNL1        0.0472
     31 C          67.2302   93.8454   10.0355 C.3     1  UNL1        0.0472
@<TRIPOS>UNITY_ATOM_ATTR
18 1
charge -1
@<TRIPOS>BOND
     1    12    13    1
     2    13     6    1
     3     6     7   ar
     4     7    14    1
     5    14    15    1
     6    15    16    1
     7    16    17    1
     8    17    18   ar
     9    17    19   ar
    10     7     8   ar
    11     8     9   ar
    12     9    10   ar
    13    10    11   ar
    14    11     1    1
    15     1     2   ar
    16     2     3   ar
    17     3     4   ar
    18     4    20    1
    19    20    21   ar
    20    21    22   ar
    21    22    23   ar
    22    23    28    1
    23    28    29    1
    24    29    30    1
    25    29    31    1
    26    23    24   ar
    27    24    26    1
    28    26    27    3
    29    24    25   ar
    30     4     5   ar
    31    11     6   ar
    32     5     1   ar
    33    25    20   ar
@<TRIPOS>MOLECULE
*****
 31 33 0 0 0
SMALL
GASTEIGER

@<TRIPOS>ATOM
      1 C          63.7985   86.9535   14.6385 C.ar    1  UNL1        0.1334
      2 N          63.3459   87.5992   15.9145 N.ar    1  UNL1       -0.1408
      3 N          63.7110   89.0528   15.8533 N.ar    1  UNL1       -0.1408
      4 C          64.3891   89.3055   14.5394 C.ar    1  UNL1        0.1337
      5 S          64.4432   88.0080   13.7886 S.2     1  UNL1       -0.0455
      6 C          63.1562   85.1267   12.9062 C.ar    1  UNL1       -0.0241
      7 C          62.9927   83.6805   12.5437 C.ar    1  UNL1       -0.0261
      8 C          63.3080   82.6145   13.5509 C.ar    1  UNL1       -0.0046
      9 C          63.7868   82.9949   14.9205 C.ar    1  UNL1       -0.0003
     10 C          63.9503   84.4412   15.2830 C.ar    1  UNL1        0.0017
     11 C          63.6350   85.5071   14.2759 C.ar    1  UNL1        0.0214
     12 C          61.4170   86.5958   11.6545 C.3     1  UNL1        0.0050
     13 C          62.8409   86.1927   11.8991 C.3     1  UNL1        0.0261
     14 C          62.5139   83.3000   11.1740 C.3     1  UNL1        0.0264
     15 C          63.4876   83.2135   10.0363 C.3     1  UNL1        0.0106
     16 C          63.7592   84.4205    9.1880 C.3     1  UNL1        0.0421
     17 C          62.7273   84.8966    8.2090 C.2     1  UNL1        0.0503
     18 O          61.6354   85.8208    8.6602 O.co2   1  UNL1       -0.5492
     19 O          62.7873   84.4486    6.7788 O.co2   1  UNL1       -0.5492
     20 C          64.9200   90.6241   14.0604 C.ar    1  UNL1        0.0265
     21 C          64.4261   91.2072   12.7697 C.ar    1  UNL1        0.0052
     22 C          64.9569   92.5258   12.2907 C.ar    1  UNL1        0.0377
     23 C          65.9817   93.2613   13.1025 C.ar    1  UNL1        0.1479
     24 C          66.4756   92.6782   14.3932 C.ar    1  UNL1        0.1023
     25 C          65.9448   91.3596   14.8722 C.ar    1  UNL1        0.0154
     26 C          67.5004   93.4136   15.2050 C.1     1  UNL1        0.1035
     27 N          68.5251   94.1491   16.0167 N.1     1  UNL1       -0.1907
     28 O          66.5126   94.5799   12.6235 O.3     1  UNL1       -0.4785
     29 C          66.3907   94.9566   11.1767 C.3     1  UNL1        0.1662
     30 C          66.9684   94.0643   10.1182 C.3     1  UNL1        0.0472
     31 C          65.6912   96.2254   10.7882 C.3     1  UNL1        0.0472
@<TRIPOS>UNITY_ATOM_ATTR
18 1
charge -1
@<TRIPOS>BOND
     1    12    13    1
     2    13     6    1
     3     6     7   ar
     4     7    14    1
     5    14    15    1
     6    15    16    1
     7    16    17    1
     8    17    18   ar
     9    17    19   ar
    10     7     8   ar
    11     8     9   ar
    12     9    10   ar
    13    10    11   ar
    14    11     1    1
    15     1     2   ar
    16     2     3   ar
    17     3     4   ar
    18     4    20    1
    19    20    21   ar
    20    21    22   ar
    21    22    23   ar
    22    23    28    1
    23    28    29    1
    24    29    30    1
    25    29    31    1
    26    23    24   ar
    27    24    26    1
    28    26    27    3
    29    24    25   ar
    30     4     5   ar
    31    11     6   ar
    32     5     1   ar
    33    25    20   ar
@<TRIPOS>MOLECULE
*****
 31 33 0 0 0
SMALL
GASTEIGER

@<TRIPOS>ATOM
      1 C          63.4624   84.3428   14.0524 C.ar    1  UNL1        0.1334
      2 N          64.2051   84.6347   15.3224 N.ar    1  UNL1       -0.1408
      3 N          64.5079   86.1035   15.3552 N.ar    1  UNL1       -0.1408
      4 C          63.9522   86.7194   14.1054 C.ar    1  UNL1        0.1337
      5 S          63.3060   85.6312   13.3002 S.2     1  UNL1       -0.0455
      6 C          63.3313   82.4691   12.2574 C.ar    1  UNL1       -0.0241
      7 C          62.8324   81.1248   11.8168 C.ar    1  UNL1       -0.0261
      8 C          61.9658   80.3101   12.7307 C.ar    1  UNL1       -0.0046
      9 C          61.5980   80.8395   14.0850 C.ar    1  UNL1       -0.0003
     10 C          62.0969   82.1837   14.5256 C.ar    1  UNL1        0.0017
     11 C          62.9635   82.9985   13.6118 C.ar    1  UNL1        0.0214
     12 C          63.6297   83.8448   10.0738 C.3     1  UNL1        0.0050
     13 C          64.1979   83.2838   11.3436 C.3     1  UNL1        0.0261
     14 C          63.2002   80.5953   10.4624 C.3     1  UNL1        0.0264
     15 C          62.7891   79.2095   10.0620 C.3     1  UNL1        0.0106
     16 C          63.7047   78.3687    9.2224 C.3     1  UNL1        0.0421
     17 C          64.0190   76.9612    9.6347 C.2     1  UNL1        0.0503
     18 O          63.1392   76.2550   10.6234 O.co2   1  UNL1       -0.5492
     19 O          65.2131   76.2598    9.0585 O.co2   1  UNL1       -0.5492
     20 C          64.0291   88.1689   13.7272 C.ar    1  UNL1        0.0265
     21 C          63.3894   88.6477   12.4578 C.ar    1  UNL1        0.0052
     22 C          63.4663   90.0972   12.0797 C.ar    1  UNL1        0.0377
     23 C          64.1830   91.0678   12.9709 C.ar    1  UNL1        0.1479
     24 C          64.8228   90.5890   14.2403 C.ar    1  UNL1        0.1023
     25 C          64.7458   89.1395   14.6185 C.ar    1  UNL1        0.0154
     26 C          65.5395   91.5596   15.1315 C.1     1  UNL1        0.1035
     27 N          66.2561   92.5301   16.0227 N.1     1  UNL1       -0.1907
     28 O          64.2600   92.5173   12.5927 O.3     1  UNL1       -0.4785
     29 C          65.4795   93.0476   11.8988 C.3     1  UNL1        0.1662
     30 C          65.8817   92.4963   10.5630 C.3     1  UNL1        0.0472
     31 C          66.2970   94.1292   12.5406 C.3     1  UNL1        0.0472
@<TRIPOS>UNITY_ATOM_ATTR
18 1
charge -1
@<TRIPOS>BOND
     1    12    13    1
     2    13     6    1
     3     6     7   ar
     4     7    14    1
     5    14    15    1
     6    15    16    1
     7    16    17    1
     8    17    18   ar
     9    17    19   ar
    10     7     8   ar
    11     8     9   ar
    12     9    10   ar
    13    10    11   ar
    14    11     1    1
    15     1     2   ar
    16     2     3   ar
    17     3     4   ar
    18     4    20    1
    19    20    21   ar
    20    21    22   ar
    21    22    23   ar
    22    23    28    1
    23    28    29    1
    24    29    30    1
    25    29    31    1
    26    23    24   ar
    27    24    26    1
    28    26    27    3
    29    24    25   ar
    30     4     5   ar
    31    11     6   ar
    32     5     1   ar
    33    25    20   ar
@<TRIPOS>MOLECULE
*****
 31 33 0 0 0
SMALL
GASTEIGER

@<TRIPOS>ATOM
      1 C          63.4210   84.1845   14.1875 C.ar    1  UNL1        0.1334
      2 N          64.0836   84.4370   15.5093 N.ar    1  UNL1       -0.1408
      3 N          64.4086   85.8989   15.5931 N.ar    1  UNL1       -0.1408
      4 C          63.9469   86.5500   14.3231 C.ar    1  UNL1        0.1337
      5 S          63.3365   85.4904   13.4544 S.2     1  UNL1       -0.0455
      6 C          63.3489   82.3656   12.3337 C.ar    1  UNL1       -0.0241
      7 C          62.8571   81.0400   11.8330 C.ar    1  UNL1       -0.0261
      8 C          61.9455   80.2076   12.6851 C.ar    1  UNL1       -0.0046
      9 C          61.5258   80.7008   14.0381 C.ar    1  UNL1       -0.0003
     10 C          62.0176   82.0264   14.5388 C.ar    1  UNL1        0.0017
     11 C          62.9292   82.8588   13.6867 C.ar    1  UNL1        0.0214
     12 C          63.8033   83.6694   10.1329 C.3     1  UNL1        0.0050
     13 C          64.2604   83.1980   11.4815 C.3     1  UNL1        0.0261
     14 C          63.2768   80.5467   10.4799 C.3     1  UNL1        0.0264
     15 C          62.7585   79.2365    9.9653 C.3     1  UNL1        0.0106
     16 C          63.6440   78.3525    9.1380 C.3     1  UNL1        0.0421
     17 C          64.0140   76.9862    9.6343 C.2     1  UNL1        0.0503
     18 O          65.2283   76.2939    9.0900 O.co2   1  UNL1       -0.5492
     19 O          63.1697   76.3121   10.6748 O.co2   1  UNL1       -0.5492
     20 C          64.0734   88.0052   13.9817 C.ar    1  UNL1        0.0265
     21 C          64.7710   88.9391   14.9258 C.ar    1  UNL1        0.0052
     22 C          64.8975   90.3942   14.5844 C.ar    1  UNL1        0.0377
     23 C          64.3264   90.9154   13.2990 C.ar    1  UNL1        0.1479
     24 C          63.6288   89.9815   12.3550 C.ar    1  UNL1        0.1023
     25 C          63.5023   88.5264   12.6963 C.ar    1  UNL1        0.0154
     26 C          63.0578   90.5028   11.0696 C.1     1  UNL1        0.1035
     27 N          62.4867   91.0240    9.7843 N.1     1  UNL1       -0.1907
     28 O          64.4529   92.3706   12.9577 O.3     1  UNL1       -0.4785
     29 C          65.7979   92.9511   12.6353 C.3     1  UNL1        0.1662
     30 C          66.5499   93.7253   13.6771 C.3     1  UNL1        0.0472
     31 C          66.3910   92.7575   11.2712 C.3     1  UNL1        0.0472
@<TRIPOS>UNITY_ATOM_ATTR
18 1
charge -1
@<TRIPOS>BOND
     1    12    13    1
     2    13     6    1
     3     6     7   ar
     4     7    14    1
     5    14    15    1
     6    15    16    1
     7    16    17    1
     8    17    18   ar
     9    17    19   ar
    10     7     8   ar
    11     8     9   ar
    12     9    10   ar
    13    10    11   ar
    14    11     1    1
    15     1     2   ar
    16     2     3   ar
    17     3     4   ar
    18     4    20    1
    19    20    21   ar
    20    21    22   ar
    21    22    23   ar
    22    23    28    1
    23    28    29    1
    24    29    30    1
    25    29    31    1
    26    23    24   ar
    27    24    26    1
    28    26    27    3
    29    24    25   ar
    30     4     5   ar
    31    11     6   ar
    32     5     1   ar
    33    25    20   ar
@<TRIPOS>MOLECULE
*****
 31 33 0 0 0
SMALL
GASTEIGER

@<TRIPOS>ATOM
      1 C          60.1837   87.3735    8.5183 C.ar    1  UNL1        0.1334
      2 N          58.7465   87.1103    8.1787 N.ar    1  UNL1       -0.1408
      3 N          58.3198   88.1199    7.1548 N.ar    1  UNL1       -0.1408
      4 C          59.4932   89.0072    6.8615 C.ar    1  UNL1        0.1337
      5 S          60.6451   88.5458    7.7042 S.2     1  UNL1       -0.0455
      6 C          62.0238   85.6061    9.0085 C.ar    1  UNL1       -0.0241
      7 C          62.8538   84.8328    9.9899 C.ar    1  UNL1       -0.0261
      8 C          62.6736   85.0537   11.4625 C.ar    1  UNL1       -0.0046
      9 C          61.6635   86.0478   11.9538 C.ar    1  UNL1       -0.0003
     10 C          60.8336   86.8210   10.9724 C.ar    1  UNL1        0.0017
     11 C          61.0137   86.6002    9.4997 C.ar    1  UNL1        0.0214
     12 C          61.2312   84.5280    6.7815 C.3     1  UNL1        0.0050
     13 C          62.2039   85.3852    7.5358 C.3     1  UNL1        0.0261
     14 C          63.8639   83.8386    9.4986 C.3     1  UNL1        0.0264
     15 C          64.2895   82.7032   10.3815 C.3     1  UNL1        0.0106
     16 C          63.2733   81.7185   10.8794 C.3     1  UNL1        0.0421
     17 C          63.2041   81.3861   12.3404 C.2     1  UNL1        0.0503
     18 O          63.8622   82.2838   13.3458 O.co2   1  UNL1       -0.5492
     19 O          62.4769   80.1558   12.7959 O.co2   1  UNL1       -0.5492
     20 C          59.5114   90.1542    5.8952 C.ar    1  UNL1        0.0265
     21 C          58.2539   90.9251    5.6223 C.ar    1  UNL1        0.0052
     22 C          58.2721   92.0722    4.6560 C.ar    1  UNL1        0.0377
     23 C          59.5479   92.4484    3.9625 C.ar    1  UNL1        0.1479
     24 C          60.8054   91.6776    4.2353 C.ar    1  UNL1        0.1023
     25 C          60.7872   90.5305    5.2017 C.ar    1  UNL1        0.0154
     26 C          62.0812   92.0538    3.5418 C.1     1  UNL1        0.1035
     27 N          63.3568   92.4301    2.8484 N.1     1  UNL1       -0.1907
     28 O          59.5661   93.5955    2.9962 O.3     1  UNL1       -0.4785
     29 C          59.8343   93.3465    1.5415 C.3     1  UNL1        0.1662
     30 C          60.9704   94.0477    0.8575 C.3     1  UNL1        0.0472
     31 C          58.9665   92.3964    0.7707 C.3     1  UNL1        0.0472
@<TRIPOS>UNITY_ATOM_ATTR
18 1
charge -1
@<TRIPOS>BOND
     1    12    13    1
     2    13     6    1
     3     6     7   ar
     4     7    14    1
     5    14    15    1
     6    15    16    1
     7    16    17    1
     8    17    18   ar
     9    17    19   ar
    10     7     8   ar
    11     8     9   ar
    12     9    10   ar
    13    10    11   ar
    14    11     1    1
    15     1     2   ar
    16     2     3   ar
    17     3     4   ar
    18     4    20    1
    19    20    21   ar
    20    21    22   ar
    21    22    23   ar
    22    23    28    1
    23    28    29    1
    24    29    30    1
    25    29    31    1
    26    23    24   ar
    27    24    26    1
    28    26    27    3
    29    24    25   ar
    30     4     5   ar
    31    11     6   ar
    32     5     1   ar
    33    25    20   ar
@<TRIPOS>MOLECULE
*****
 31 33 0 0 0
SMALL
GASTEIGER

@<TRIPOS>ATOM
      1 C          62.2435   87.9358   10.9916 C.ar    1  UNL1        0.1334
      2 N          62.6265   87.0614   12.1486 N.ar    1  UNL1       -0.1408
      3 N          63.4848   87.8695   13.0761 N.ar    1  UNL1       -0.1408
      4 C          63.6323   89.2434   12.4922 C.ar    1  UNL1        0.1337
      5 S          62.8651   89.2843   11.2040 S.2     1  UNL1       -0.0455
      6 C          60.5731   88.5623    9.1028 C.ar    1  UNL1       -0.0241
      7 C          59.7185   88.1589    7.9379 C.ar    1  UNL1       -0.0261
      8 C          59.6797   86.7258    7.4969 C.ar    1  UNL1       -0.0046
      9 C          60.4954   85.6959    8.2208 C.ar    1  UNL1       -0.0003
     10 C          61.3499   86.0993    9.3856 C.ar    1  UNL1        0.0017
     11 C          61.3888   87.5324    9.8267 C.ar    1  UNL1        0.0214
     12 C          59.7351   90.4578   10.6695 C.3     1  UNL1        0.0050
     13 C          60.6120   89.9955    9.5438 C.3     1  UNL1        0.0261
     14 C          58.9028   89.1888    7.2140 C.3     1  UNL1        0.0264
     15 C          59.4150   89.7908    5.9392 C.3     1  UNL1        0.0106
     16 C          58.9025   91.1238    5.4802 C.3     1  UNL1        0.0421
     17 C          59.6310   91.8787    4.4082 C.2     1  UNL1        0.0503
     18 O          58.8707   92.7635    3.4653 O.co2   1  UNL1       -0.5492
     19 O          61.1197   91.7489    4.2791 O.co2   1  UNL1       -0.5492
     20 C          64.4104   90.3772   13.0915 C.ar    1  UNL1        0.0265
     21 C          65.3482   91.1774   12.2370 C.ar    1  UNL1        0.0052
     22 C          66.1262   92.3112   12.8362 C.ar    1  UNL1        0.0377
     23 C          65.9665   92.6448   14.2899 C.ar    1  UNL1        0.1479
     24 C          65.0287   91.8445   15.1444 C.ar    1  UNL1        0.1023
     25 C          64.2506   90.7107   14.5452 C.ar    1  UNL1        0.0154
     26 C          64.8690   92.1781   16.5981 C.1     1  UNL1        0.1035
     27 N          64.7092   92.5116   18.0517 N.1     1  UNL1       -0.1907
     28 O          66.7446   93.7786   14.8891 O.3     1  UNL1       -0.4785
     29 C          68.0373   93.5078   15.6002 C.3     1  UNL1        0.1662
     30 C          68.4010   92.1049   15.9869 C.3     1  UNL1        0.0472
     31 C          68.9663   94.6399   15.9245 C.3     1  UNL1        0.0472
@<TRIPOS>UNITY_ATOM_ATTR
18 1
charge -1
@<TRIPOS>BOND
     1    12    13    1
     2    13     6    1
     3     6     7   ar
     4     7    14    1
     5    14    15    1
     6    15    16    1
     7    16    17    1
     8    17    18   ar
     9    17    19   ar
    10     7     8   ar
    11     8     9   ar
    12     9    10   ar
    13    10    11   ar
    14    11     1    1
    15     1     2   ar
    16     2     3   ar
    17     3     4   ar
    18     4    20    1
    19    20    21   ar
    20    21    22   ar
    21    22    23   ar
    22    23    28    1
    23    28    29    1
    24    29    30    1
    25    29    31    1
    26    23    24   ar
    27    24    26    1
    28    26    27    3
    29    24    25   ar
    30     4     5   ar
    31    11     6   ar
    32     5     1   ar
    33    25    20   ar
