@<TRIPOS>MOLECULE
*****
 25 28 0 0 0
SMALL
GASTEIGER

@<TRIPOS>ATOM
      1 C          64.1140   89.3387   14.3515 C.ar    1  UNL1        0.0534
      2 C          63.4171   89.4518   13.0281 C.ar    1  UNL1        0.0045
      3 C          63.7352   90.5931   12.1081 C.ar    1  UNL1        0.0001
      4 C          64.7502   91.6212   12.5115 C.ar    1  UNL1       -0.0002
      5 C          65.0683   92.7624   11.5916 C.ar    1  UNL1       -0.0017
      6 C          66.0833   93.7905   11.9950 C.ar    1  UNL1        0.0071
      7 C          66.7803   93.6773   13.3185 C.ar    1  UNL1       -0.0017
      8 C          66.4622   92.5361   14.2385 C.ar    1  UNL1       -0.0002
      9 C          65.4471   91.5080   13.8350 C.ar    1  UNL1        0.0001
     10 C          65.1290   90.3667   14.7549 C.ar    1  UNL1        0.0045
     11 C          66.4014   94.9317   11.0750 C.3     1  UNL1        0.1432
     12 O          65.6042   95.7388   12.0562 O.3     1  UNL1       -0.3770
     13 C          66.5529   96.2417   10.3601 C.3     1  UNL1        0.0614
     14 C          67.3772   96.0055    9.1294 C.3     1  UNL1        0.1105
     15 N          67.7352   94.5496    9.0836 N.ar    1  UNL1       -0.3101
     16 C          68.4659   93.5039    8.2947 C.ar    1  UNL1        0.1784
     17 N          68.3145   92.1939    9.0095 N.ar    1  UNL1       -0.2226
     18 C          67.4902   92.4300   10.2403 C.ar    1  UNL1        0.1160
     19 C          67.1322   93.8860   10.2861 C.ar    1  UNL1        0.0859
     20 H          65.5763   96.6642   11.7667 H       1  UNL1        0.2112
     21 C          63.8780   85.6592   15.8197 C.3     1  UNL1        0.1109
     22 N          64.1961   86.8004   14.8998 N.am    1  UNL1       -0.2992
     23 C          63.7959   88.1974   15.2715 C.2     1  UNL1        0.2459
     24 O          63.0777   88.4532   16.5632 O.2     1  UNL1       -0.2701
     25 H          64.6676   86.6326   14.0519 H       1  UNL1        0.1498
@<TRIPOS>BOND
     1    21    22    1
     2    22    23   am
     3    23    24    2
     4    23     1    1
     5     1     2   ar
     6     2     3   ar
     7     3     4   ar
     8     4     5   ar
     9     5     6   ar
    10     6    11    1
    11    11    12    1
    12    11    13    1
    13    13    14    1
    14    14    15    1
    15    15    16   ar
    16    16    17   ar
    17    17    18   ar
    18    18    19   ar
    19     6     7   ar
    20     7     8   ar
    21     8     9   ar
    22     9    10   ar
    23    10     1   ar
    24     9     4   ar
    25    19    11    1
    26    19    15   ar
    27    22    25    1
    28    12    20    1
@<TRIPOS>MOLECULE
*****
 25 28 0 0 0
SMALL
GASTEIGER

@<TRIPOS>ATOM
      1 C          64.1298   89.2396   13.5885 C.ar    1  UNL1        0.0534
      2 C          63.2796   88.8623   12.4118 C.ar    1  UNL1        0.0045
      3 C          62.8449   87.4387   12.2264 C.ar    1  UNL1        0.0001
      4 C          63.2604   86.3924   13.2177 C.ar    1  UNL1       -0.0002
      5 C          62.8256   84.9688   13.0323 C.ar    1  UNL1       -0.0017
      6 C          63.2411   83.9226   14.0236 C.ar    1  UNL1        0.0071
      7 C          64.0914   84.2999   15.2004 C.ar    1  UNL1       -0.0017
      8 C          64.5261   85.7235   15.3858 C.ar    1  UNL1       -0.0002
      9 C          64.1106   86.7698   14.3944 C.ar    1  UNL1        0.0001
     10 C          64.5453   88.1934   14.5798 C.ar    1  UNL1        0.0045
     11 C          62.8064   82.4990   13.8382 C.3     1  UNL1        0.1432
     12 O          62.2745   82.6450   15.2330 O.3     1  UNL1       -0.3770
     13 C          62.2605   81.1059   13.9443 C.3     1  UNL1        0.0614
     14 C          62.5459   80.3966   12.6538 C.3     1  UNL1        0.1105
     15 N          63.2683   81.3513   11.7501 N.ar    1  UNL1       -0.3101
     16 C          63.8911   81.5029   10.3940 C.ar    1  UNL1        0.1784
     17 N          64.4371   82.8960   10.2877 N.ar    1  UNL1       -0.2226
     18 C          64.1516   83.6053   11.5783 C.ar    1  UNL1        0.1160
     19 C          63.4293   82.6506   12.4820 C.ar    1  UNL1        0.0859
     20 H          61.8592   81.8131   15.5094 H       1  UNL1        0.2112
     21 C          66.1221   92.4118   14.8993 C.3     1  UNL1        0.1109
     22 N          65.6874   90.9882   14.7138 N.am    1  UNL1       -0.2992
     23 C          64.5645   90.6632   13.7739 C.2     1  UNL1        0.2459
     24 O          63.8763   91.7619   13.0195 O.2     1  UNL1       -0.2701
     25 H          66.1391   90.2671   15.2090 H       1  UNL1        0.1498
@<TRIPOS>BOND
     1    21    22    1
     2    22    23   am
     3    23    24    2
     4    23     1    1
     5     1     2   ar
     6     2     3   ar
     7     3     4   ar
     8     4     5   ar
     9     5     6   ar
    10     6    11    1
    11    11    12    1
    12    11    13    1
    13    13    14    1
    14    14    15    1
    15    15    16   ar
    16    16    17   ar
    17    17    18   ar
    18    18    19   ar
    19     6     7   ar
    20     7     8   ar
    21     8     9   ar
    22     9    10   ar
    23    10     1   ar
    24     9     4   ar
    25    19    11    1
    26    19    15   ar
    27    22    25    1
    28    12    20    1
@<TRIPOS>MOLECULE
*****
 25 28 0 0 0
SMALL
GASTEIGER

@<TRIPOS>ATOM
      1 C          65.4669   91.7705   14.5737 C.ar    1  UNL1        0.0534
      2 C          64.5016   90.8759   15.2932 C.ar    1  UNL1        0.0045
      3 C          63.4018   90.1946   14.5341 C.ar    1  UNL1        0.0001
      4 C          63.2673   90.4079   13.0555 C.ar    1  UNL1       -0.0002
      5 C          62.1675   89.7266   12.2963 C.ar    1  UNL1       -0.0017
      6 C          62.0331   89.9400   10.8177 C.ar    1  UNL1        0.0071
      7 C          62.9984   90.8346   10.0981 C.ar    1  UNL1       -0.0017
      8 C          64.0983   91.5159   10.8573 C.ar    1  UNL1       -0.0002
      9 C          64.2327   91.3025   12.3360 C.ar    1  UNL1        0.0001
     10 C          65.3325   91.9838   13.0951 C.ar    1  UNL1        0.0045
     11 C          60.9333   89.2587   10.0586 C.3     1  UNL1        0.1432
     12 O          60.5009   90.6587    9.7383 O.3     1  UNL1       -0.3770
     13 C          59.7431   88.8700    9.2325 C.3     1  UNL1        0.0614
     14 C          59.6698   87.3722    9.2010 C.3     1  UNL1        0.1105
     15 N          60.8147   86.8350   10.0076 N.ar    1  UNL1       -0.3101
     16 C          61.4770   85.5773   10.4867 C.ar    1  UNL1        0.1784
     17 N          62.6672   85.9659   11.3128 N.ar    1  UNL1       -0.2226
     18 C          62.7405   87.4638   11.3443 C.ar    1  UNL1        0.1160
     19 C          61.5956   88.0009   10.5377 C.ar    1  UNL1        0.0859
     20 H          59.7058   90.6326    9.1833 H       1  UNL1        0.2112
     21 C          68.9668   93.4434   15.4116 C.3     1  UNL1        0.1109
     22 N          67.8670   92.7621   14.6525 N.am    1  UNL1       -0.2992
     23 C          66.5667   92.4518   15.3328 C.2     1  UNL1        0.2459
     24 O          66.3663   92.8228   16.7723 O.2     1  UNL1       -0.2701
     25 H          67.9986   92.5187   13.7077 H       1  UNL1        0.1498
@<TRIPOS>BOND
     1    21    22    1
     2    22    23   am
     3    23    24    2
     4    23     1    1
     5     1     2   ar
     6     2     3   ar
     7     3     4   ar
     8     4     5   ar
     9     5     6   ar
    10     6    11    1
    11    11    12    1
    12    11    13    1
    13    13    14    1
    14    14    15    1
    15    15    16   ar
    16    16    17   ar
    17    17    18   ar
    18    18    19   ar
    19     6     7   ar
    20     7     8   ar
    21     8     9   ar
    22     9    10   ar
    23    10     1   ar
    24     9     4   ar
    25    19    11    1
    26    19    15   ar
    27    22    25    1
    28    12    20    1
@<TRIPOS>MOLECULE
*****
 25 28 0 0 0
SMALL
GASTEIGER

@<TRIPOS>ATOM
      1 C          66.4683   92.8584   11.0618 C.ar    1  UNL1        0.0534
      2 C          67.4048   92.7525   12.2288 C.ar    1  UNL1        0.0045
      3 C          66.9819   92.0163   13.4654 C.ar    1  UNL1        0.0001
      4 C          65.6226   91.3859   13.5351 C.ar    1  UNL1       -0.0002
      5 C          65.1998   90.6497   14.7717 C.ar    1  UNL1       -0.0017
      6 C          63.8405   90.0194   14.8414 C.ar    1  UNL1        0.0071
      7 C          62.9039   90.1253   13.6744 C.ar    1  UNL1       -0.0017
      8 C          63.3268   90.8615   12.4378 C.ar    1  UNL1       -0.0002
      9 C          64.6862   91.4918   12.3681 C.ar    1  UNL1        0.0001
     10 C          65.1090   92.2280   11.1315 C.ar    1  UNL1        0.0045
     11 C          63.4177   89.2832   16.0780 C.3     1  UNL1        0.1432
     12 O          63.1530   90.6581   16.6158 O.3     1  UNL1       -0.3770
     13 C          62.9395   88.8344   17.4270 C.3     1  UNL1        0.0614
     14 C          62.9970   87.3360   17.4643 C.3     1  UNL1        0.1105
     15 N          63.5107   86.8587   16.1383 N.ar    1  UNL1       -0.3101
     16 C          63.8638   85.6376   15.3419 C.ar    1  UNL1        0.1784
     17 N          64.3419   86.0863   13.9928 N.ar    1  UNL1       -0.2226
     18 C          64.2844   87.5848   13.9555 C.ar    1  UNL1        0.1160
     19 C          63.7707   88.0621   15.2815 C.ar    1  UNL1        0.0859
     20 H          62.8198   90.5913   17.5244 H       1  UNL1        0.2112
     21 C          66.6481   95.6236    8.2209 C.3     1  UNL1        0.1109
     22 N          66.2253   94.8874    9.4575 N.am    1  UNL1       -0.2992
     23 C          66.8911   93.5946    9.8252 C.2     1  UNL1        0.2459
     24 O          67.9798   93.0380    8.9564 O.2     1  UNL1       -0.2701
     25 H          65.5107   95.2527   10.0277 H       1  UNL1        0.1498
@<TRIPOS>BOND
     1    21    22    1
     2    22    23   am
     3    23    24    2
     4    23     1    1
     5     1     2   ar
     6     2     3   ar
     7     3     4   ar
     8     4     5   ar
     9     5     6   ar
    10     6    11    1
    11    11    12    1
    12    11    13    1
    13    13    14    1
    14    14    15    1
    15    15    16   ar
    16    16    17   ar
    17    17    18   ar
    18    18    19   ar
    19     6     7   ar
    20     7     8   ar
    21     8     9   ar
    22     9    10   ar
    23    10     1   ar
    24     9     4   ar
    25    19    11    1
    26    19    15   ar
    27    22    25    1
    28    12    20    1
@<TRIPOS>MOLECULE
*****
 25 28 0 0 0
SMALL
GASTEIGER

@<TRIPOS>ATOM
      1 C          62.3002   89.5394   10.3556 C.ar    1  UNL1        0.0534
      2 C          62.7542   90.9047    9.9314 C.ar    1  UNL1        0.0045
      3 C          63.6287   91.7195   10.8377 C.ar    1  UNL1        0.0001
      4 C          64.0493   91.1690   12.1681 C.ar    1  UNL1       -0.0002
      5 C          64.9239   91.9838   13.0743 C.ar    1  UNL1       -0.0017
      6 C          65.3445   91.4334   14.4047 C.ar    1  UNL1        0.0071
      7 C          64.8905   90.0680   14.8290 C.ar    1  UNL1       -0.0017
      8 C          64.0160   89.2532   13.9227 C.ar    1  UNL1       -0.0002
      9 C          63.5954   89.8038   12.5922 C.ar    1  UNL1        0.0001
     10 C          62.7208   88.9890   11.6860 C.ar    1  UNL1        0.0045
     11 C          66.2190   92.2482   15.3110 C.3     1  UNL1        0.1432
     12 O          64.9839   92.3447   16.1565 O.3     1  UNL1       -0.3770
     13 C          66.8354   93.0831   16.3939 C.3     1  UNL1        0.0614
     14 C          68.2686   93.3323   16.0282 C.3     1  UNL1        0.1105
     15 N          68.5380   92.6513   14.7192 N.ar    1  UNL1       -0.3101
     16 C          69.5903   92.3844   13.6841 C.ar    1  UNL1        0.1784
     17 N          68.9740   91.5495   12.6010 N.ar    1  UNL1       -0.2226
     18 C          67.5408   91.3003   12.9668 C.ar    1  UNL1        0.1160
     19 C          67.2713   91.9813   14.2759 C.ar    1  UNL1        0.0859
     20 H          65.1746   92.8712   16.9486 H       1  UNL1        0.2112
     21 C          59.4696   88.5766    7.7460 C.3     1  UNL1        0.1109
     22 N          60.3441   89.3914    8.6522 N.am    1  UNL1       -0.2992
     23 C          61.4257   88.7246    9.4493 C.2     1  UNL1        0.2459
     24 O          61.6327   87.2430    9.3403 O.2     1  UNL1       -0.2701
     25 H          60.2082   90.3639    8.7238 H       1  UNL1        0.1498
@<TRIPOS>BOND
     1    21    22    1
     2    22    23   am
     3    23    24    2
     4    23     1    1
     5     1     2   ar
     6     2     3   ar
     7     3     4   ar
     8     4     5   ar
     9     5     6   ar
    10     6    11    1
    11    11    12    1
    12    11    13    1
    13    13    14    1
    14    14    15    1
    15    15    16   ar
    16    16    17   ar
    17    17    18   ar
    18    18    19   ar
    19     6     7   ar
    20     7     8   ar
    21     8     9   ar
    22     9    10   ar
    23    10     1   ar
    24     9     4   ar
    25    19    11    1
    26    19    15   ar
    27    22    25    1
    28    12    20    1
@<TRIPOS>MOLECULE
*****
 25 28 0 0 0
SMALL
GASTEIGER

@<TRIPOS>ATOM
      1 C          62.1228   88.9652   10.4350 C.ar    1  UNL1        0.0534
      2 C          62.3242   88.0780   11.6276 C.ar    1  UNL1        0.0045
      3 C          63.1707   88.5444   12.7748 C.ar    1  UNL1        0.0001
      4 C          63.8158   89.8978   12.7294 C.ar    1  UNL1       -0.0002
      5 C          64.6622   90.3641   13.8766 C.ar    1  UNL1       -0.0017
      6 C          65.3073   91.7175   13.8312 C.ar    1  UNL1        0.0071
      7 C          65.1059   92.6047   12.6385 C.ar    1  UNL1       -0.0017
      8 C          64.2594   92.1384   11.4913 C.ar    1  UNL1       -0.0002
      9 C          63.6144   90.7849   11.5368 C.ar    1  UNL1        0.0001
     10 C          62.7679   90.3186   10.3896 C.ar    1  UNL1        0.0045
     11 C          66.1537   92.1838   14.9784 C.3     1  UNL1        0.1432
     12 O          64.8430   92.2810   15.7010 O.3     1  UNL1       -0.3770
     13 C          66.7262   92.6704   16.2766 C.3     1  UNL1        0.0614
     14 C          68.2138   92.7765   16.1165 C.3     1  UNL1        0.1105
     15 N          68.5608   92.3554   14.7193 N.ar    1  UNL1       -0.3101
     16 C          69.6947   92.1606   13.7568 C.ar    1  UNL1        0.1784
     17 N          69.1223   91.6740   12.4585 N.ar    1  UNL1       -0.2226
     18 C          67.6346   91.5680   12.6186 C.ar    1  UNL1        0.1160
     19 C          67.2876   91.9891   14.0159 C.ar    1  UNL1        0.0859
     20 H          64.9953   92.5941   16.6064 H       1  UNL1        0.2112
     21 C          59.4865   88.9856    7.4687 C.3     1  UNL1        0.1109
     22 N          60.3330   89.4519    8.6159 N.am    1  UNL1       -0.2992
     23 C          61.2764   88.4989    9.2878 C.2     1  UNL1        0.2459
     24 O          61.3733   87.0795    8.8126 O.2     1  UNL1       -0.2701
     25 H          60.2693   90.3835    8.9278 H       1  UNL1        0.1498
@<TRIPOS>BOND
     1    21    22    1
     2    22    23   am
     3    23    24    2
     4    23     1    1
     5     1     2   ar
     6     2     3   ar
     7     3     4   ar
     8     4     5   ar
     9     5     6   ar
    10     6    11    1
    11    11    12    1
    12    11    13    1
    13    13    14    1
    14    14    15    1
    15    15    16   ar
    16    16    17   ar
    17    17    18   ar
    18    18    19   ar
    19     6     7   ar
    20     7     8   ar
    21     8     9   ar
    22     9    10   ar
    23    10     1   ar
    24     9     4   ar
    25    19    11    1
    26    19    15   ar
    27    22    25    1
    28    12    20    1
@<TRIPOS>MOLECULE
*****
 25 28 0 0 0
SMALL
GASTEIGER

@<TRIPOS>ATOM
      1 C          63.9957   89.1630   14.3745 C.ar    1  UNL1        0.0534
      2 C          63.2294   89.2169   13.0861 C.ar    1  UNL1        0.0045
      3 C          63.0041   87.9629   12.2944 C.ar    1  UNL1        0.0001
      4 C          63.5450   86.6550   12.7911 C.ar    1  UNL1       -0.0002
      5 C          63.3196   85.4011   11.9994 C.ar    1  UNL1       -0.0017
      6 C          63.8606   84.0931   12.4960 C.ar    1  UNL1        0.0071
      7 C          64.6269   84.0391   13.7844 C.ar    1  UNL1       -0.0017
      8 C          64.8523   85.2931   14.5761 C.ar    1  UNL1       -0.0002
      9 C          64.3113   86.6011   14.0794 C.ar    1  UNL1        0.0001
     10 C          64.5366   87.8551   14.8711 C.ar    1  UNL1        0.0045
     11 C          63.6352   82.8392   11.7043 C.3     1  UNL1        0.1432
     12 O          64.4826   83.5249   10.6741 O.3     1  UNL1       -0.3770
     13 C          63.5870   81.7286   10.6973 C.3     1  UNL1        0.0614
     14 C          62.7569   80.6186   11.2707 C.3     1  UNL1        0.1105
     15 N          62.2921   81.0432   12.6322 N.ar    1  UNL1       -0.3101
     16 C          61.4918   80.6195   13.8281 C.ar    1  UNL1        0.1784
     17 N          61.5400   81.7301   14.8352 N.ar    1  UNL1       -0.2226
     18 C          62.3701   82.8401   14.2617 C.ar    1  UNL1        0.1160
     19 C          62.8349   82.4156   12.9002 C.ar    1  UNL1        0.0859
     20 H          64.5814   82.9480    9.9006 H       1  UNL1        0.2112
     21 C          65.6806   92.4916   15.7276 C.3     1  UNL1        0.1109
     22 N          65.4553   91.2377   14.9359 N.am    1  UNL1       -0.2992
     23 C          64.2211   90.4169   15.1662 C.2     1  UNL1        0.2459
     24 O          63.2122   90.8502   16.1881 O.2     1  UNL1       -0.2701
     25 H          66.1175   90.9533   14.2652 H       1  UNL1        0.1498
@<TRIPOS>BOND
     1    21    22    1
     2    22    23   am
     3    23    24    2
     4    23     1    1
     5     1     2   ar
     6     2     3   ar
     7     3     4   ar
     8     4     5   ar
     9     5     6   ar
    10     6    11    1
    11    11    12    1
    12    11    13    1
    13    13    14    1
    14    14    15    1
    15    15    16   ar
    16    16    17   ar
    17    17    18   ar
    18    18    19   ar
    19     6     7   ar
    20     7     8   ar
    21     8     9   ar
    22     9    10   ar
    23    10     1   ar
    24     9     4   ar
    25    19    11    1
    26    19    15   ar
    27    22    25    1
    28    12    20    1
@<TRIPOS>MOLECULE
*****
 25 28 0 0 0
SMALL
GASTEIGER

@<TRIPOS>ATOM
      1 C          61.7045   86.5569    9.2608 C.ar    1  UNL1        0.0534
      2 C          62.2850   85.7209   10.3626 C.ar    1  UNL1        0.0045
      3 C          62.8299   86.3786   11.5956 C.ar    1  UNL1        0.0001
      4 C          62.7943   87.8724   11.7269 C.ar    1  UNL1       -0.0002
      5 C          63.3392   88.5302   12.9600 C.ar    1  UNL1       -0.0017
      6 C          63.3036   90.0240   13.0912 C.ar    1  UNL1        0.0071
      7 C          62.7230   90.8601   11.9894 C.ar    1  UNL1       -0.0017
      8 C          62.1782   90.2023   10.7563 C.ar    1  UNL1       -0.0002
      9 C          62.2138   88.7084   10.6251 C.ar    1  UNL1        0.0001
     10 C          61.6689   88.0507    9.3920 C.ar    1  UNL1        0.0045
     11 C          63.8485   90.6817   14.3243 C.3     1  UNL1        0.1432
     12 O          62.8413   89.8268   15.0346 O.3     1  UNL1       -0.3770
     13 C          64.1828   91.1608   15.7058 C.3     1  UNL1        0.0614
     14 C          65.2827   92.1743   15.5915 C.3     1  UNL1        0.1105
     15 N          65.6281   92.3216   14.1393 N.ar    1  UNL1       -0.3101
     16 C          66.5214   93.0391   13.1711 C.ar    1  UNL1        0.1784
     17 N          66.1871   92.5601   11.7895 N.ar    1  UNL1       -0.2226
     18 C          65.0871   91.5465   11.9038 C.ar    1  UNL1        0.1160
     19 C          64.7417   91.3992   13.3561 C.ar    1  UNL1        0.0859
     20 H          62.8937   89.9910   15.9892 H       1  UNL1        0.2112
     21 C          61.5045   84.3796    5.9488 C.3     1  UNL1        0.1109
     22 N          62.0494   85.0373    7.1819 N.am    1  UNL1       -0.2992
     23 C          61.1596   85.8991    8.0277 C.2     1  UNL1        0.2459
     24 O          59.7249   86.1031    7.6405 O.2     1  UNL1       -0.2701
     25 H          62.9911   84.9034    7.4360 H       1  UNL1        0.1498
@<TRIPOS>BOND
     1    21    22    1
     2    22    23   am
     3    23    24    2
     4    23     1    1
     5     1     2   ar
     6     2     3   ar
     7     3     4   ar
     8     4     5   ar
     9     5     6   ar
    10     6    11    1
    11    11    12    1
    12    11    13    1
    13    13    14    1
    14    14    15    1
    15    15    16   ar
    16    16    17   ar
    17    17    18   ar
    18    18    19   ar
    19     6     7   ar
    20     7     8   ar
    21     8     9   ar
    22     9    10   ar
    23    10     1   ar
    24     9     4   ar
    25    19    11    1
    26    19    15   ar
    27    22    25    1
    28    12    20    1
@<TRIPOS>MOLECULE
*****
 25 28 0 0 0
SMALL
GASTEIGER

@<TRIPOS>ATOM
      1 C          61.2445   88.2085    9.7700 C.ar    1  UNL1        0.0534
      2 C          60.8456   89.6515    9.8614 C.ar    1  UNL1        0.0045
      3 C          61.3736   90.5066   10.9749 C.ar    1  UNL1        0.0001
      4 C          62.3006   89.9187   11.9971 C.ar    1  UNL1       -0.0002
      5 C          62.8287   90.7738   13.1107 C.ar    1  UNL1       -0.0017
      6 C          63.7556   90.1858   14.1329 C.ar    1  UNL1        0.0071
      7 C          64.1546   88.7427   14.0416 C.ar    1  UNL1       -0.0017
      8 C          63.6266   87.8876   12.9280 C.ar    1  UNL1       -0.0002
      9 C          62.6996   88.4756   11.9058 C.ar    1  UNL1        0.0001
     10 C          62.1715   87.6205   10.7922 C.ar    1  UNL1        0.0045
     11 C          64.2837   91.0409   15.2464 C.3     1  UNL1        0.1432
     12 O          63.2535   90.3280   16.0712 O.3     1  UNL1       -0.3770
     13 C          64.5964   91.7470   16.5323 C.3     1  UNL1        0.0614
     14 C          65.7095   92.7175   16.2695 C.3     1  UNL1        0.1105
     15 N          66.0847   92.6113   14.8211 N.ar    1  UNL1       -0.3101
     16 C          67.0046   93.1454   13.7635 C.ar    1  UNL1        0.1784
     17 N          66.6920   92.4394   12.4775 N.ar    1  UNL1       -0.2226
     18 C          65.5788   91.4688   12.7404 C.ar    1  UNL1        0.1160
     19 C          65.2036   91.5751   14.1888 C.ar    1  UNL1        0.0859
     20 H          63.2891   90.6529   16.9845 H       1  UNL1        0.2112
     21 C          60.9076   85.2395    7.1583 C.3     1  UNL1        0.1109
     22 N          61.4357   86.0946    8.2718 N.am    1  UNL1       -0.2992
     23 C          60.7165   87.3534    8.6565 C.2     1  UNL1        0.2459
     24 O          59.4692   87.7571    7.9276 O.2     1  UNL1       -0.2701
     25 H          62.2543   85.8295    8.7502 H       1  UNL1        0.1498
@<TRIPOS>BOND
     1    21    22    1
     2    22    23   am
     3    23    24    2
     4    23     1    1
     5     1     2   ar
     6     2     3   ar
     7     3     4   ar
     8     4     5   ar
     9     5     6   ar
    10     6    11    1
    11    11    12    1
    12    11    13    1
    13    13    14    1
    14    14    15    1
    15    15    16   ar
    16    16    17   ar
    17    17    18   ar
    18    18    19   ar
    19     6     7   ar
    20     7     8   ar
    21     8     9   ar
    22     9    10   ar
    23    10     1   ar
    24     9     4   ar
    25    19    11    1
    26    19    15   ar
    27    22    25    1
    28    12    20    1
