@<TRIPOS>MOLECULE
*****
 25 28 0 0 0
SMALL
GASTEIGER

@<TRIPOS>ATOM
      1 C          61.5131   87.1795   10.7906 C.3     1  UNL1        0.1140
      2 C          62.2343   88.4545   11.1139 C.ar    1  UNL1        0.0273
      3 C          63.2234   88.8041   12.1860 C.ar    1  UNL1        0.1379
      4 F          63.6489   87.7657   13.1813 F       1  UNL1       -0.2044
      5 C          63.7870   90.1921   12.2627 C.ar    1  UNL1        0.0294
      6 C          63.3615   91.2304   11.2674 C.ar    1  UNL1        0.0023
      7 C          62.3723   90.8809   10.1953 C.ar    1  UNL1        0.0014
      8 C          61.8087   89.4929   10.1185 C.ar    1  UNL1        0.0173
      9 C          60.8246   88.8597    9.1801 C.ar    1  UNL1        0.0804
     10 C          59.9534   89.1102    7.9850 C.ar    1  UNL1        0.1178
     11 N          59.2323   87.8353    7.6618 N.ar    1  UNL1       -0.2223
     12 C          59.6578   86.7968    8.6571 C.ar    1  UNL1        0.1788
     13 N          60.6419   87.4300    9.5955 N.ar    1  UNL1       -0.3068
     14 C          61.6407   85.8820   11.5323 C.3     1  UNL1        0.0565
     15 O          63.1308   84.9202    9.6336 O.3     1  UNL1       -0.3844
     16 C          62.5449   84.8052   11.0097 C.3     1  UNL1        0.1127
     17 H          62.8267   85.7435    9.2205 H       1  UNL1        0.2103
     18 C          62.8632   83.6135   11.8631 C.3     1  UNL1        0.0272
     19 C          62.7388   82.2303   11.2963 C.3     1  UNL1        0.0049
     20 C          63.0571   81.0386   12.1498 C.3     1  UNL1        0.0293
     21 C          63.4998   81.2300   13.5701 C.3     1  UNL1        0.1105
     22 O          63.8181   80.0382   14.4235 O.3     1  UNL1       -0.3845
     23 C          63.6242   82.6132   14.1370 C.3     1  UNL1        0.0293
     24 C          63.3059   83.8049   13.2835 C.3     1  UNL1        0.0049
     25 H          64.0863   80.3356   15.3070 H       1  UNL1        0.2103
@<TRIPOS>BOND
     1    16    15    1
     2    16    14    1
     3     1    14    1
     4     1     2    1
     5     2     3   ar
     6     3     4    1
     7     3     5   ar
     8     5     6   ar
     9     6     7   ar
    10     7     8   ar
    11     8     9    1
    12     9    10   ar
    13    10    11   ar
    14    11    12   ar
    15    12    13   ar
    16    16    18    1
    17    18    19    1
    18    19    20    1
    19    20    21    1
    20    21    22    1
    21    21    23    1
    22    23    24    1
    23    13     1    1
    24    24    18    1
    25     8     2   ar
    26    13     9   ar
    27    15    17    1
    28    22    25    1
@<TRIPOS>MOLECULE
*****
 25 28 0 0 0
SMALL
GASTEIGER

@<TRIPOS>ATOM
      1 C          61.8531   88.7233   11.0291 C.3     1  UNL1        0.1140
      2 C          62.3520   87.3978   11.5236 C.ar    1  UNL1        0.0273
      3 C          63.2236   87.0235   12.6855 C.ar    1  UNL1        0.1379
      4 F          63.7578   88.0888   13.5963 F       1  UNL1       -0.2044
      5 C          63.5611   85.5836   12.9366 C.ar    1  UNL1        0.0294
      6 C          63.0269   84.5183   12.0258 C.ar    1  UNL1        0.0023
      7 C          62.1553   84.8926   10.8639 C.ar    1  UNL1        0.0014
      8 C          61.8178   86.3324   10.6127 C.ar    1  UNL1        0.0173
      9 C          60.9888   86.9993    9.5554 C.ar    1  UNL1        0.0804
     10 C          60.1464   86.7530    8.3390 C.ar    1  UNL1        0.1178
     11 N          59.6475   88.0784    7.8446 N.ar    1  UNL1       -0.2223
     12 C          60.1817   89.1439    8.7554 C.ar    1  UNL1        0.1788
     13 N          61.0107   88.4770    9.8127 N.ar    1  UNL1       -0.3068
     14 C          62.1454   90.0602   11.6432 C.3     1  UNL1        0.0565
     15 O          62.8352   91.4552    9.5628 O.3     1  UNL1       -0.3844
     16 C          63.0971   91.0033   10.9690 C.3     1  UNL1        0.1127
     17 H          62.0165   91.0477    9.2394 H       1  UNL1        0.2103
     18 C          64.3108   91.4946   11.7008 C.3     1  UNL1        0.0272
     19 C          65.3271   92.3364   10.9876 C.3     1  UNL1        0.0049
     20 C          66.5408   92.8277   11.7195 C.3     1  UNL1        0.0293
     21 C          66.7382   92.4772   13.1645 C.3     1  UNL1        0.1105
     22 O          67.9519   92.9685   13.8964 O.3     1  UNL1       -0.3845
     23 C          65.7219   91.6354   13.8778 C.3     1  UNL1        0.0293
     24 C          64.5082   91.1441   13.1459 C.3     1  UNL1        0.0049
     25 H          67.9253   92.6547   14.8138 H       1  UNL1        0.2103
@<TRIPOS>BOND
     1    16    15    1
     2    16    14    1
     3     1    14    1
     4     1     2    1
     5     2     3   ar
     6     3     4    1
     7     3     5   ar
     8     5     6   ar
     9     6     7   ar
    10     7     8   ar
    11     8     9    1
    12     9    10   ar
    13    10    11   ar
    14    11    12   ar
    15    12    13   ar
    16    16    18    1
    17    18    19    1
    18    19    20    1
    19    20    21    1
    20    21    22    1
    21    21    23    1
    22    23    24    1
    23    13     1    1
    24    24    18    1
    25     8     2   ar
    26    13     9   ar
    27    15    17    1
    28    22    25    1
@<TRIPOS>MOLECULE
*****
 25 28 0 0 0
SMALL
GASTEIGER

@<TRIPOS>ATOM
      1 C          63.3220   87.2907   12.7108 C.3     1  UNL1        0.1140
      2 C          63.4619   85.8365   13.0513 C.ar    1  UNL1        0.0273
      3 C          64.1675   85.1313   14.1714 C.ar    1  UNL1        0.1379
      4 F          64.9076   85.9233   15.2081 F       1  UNL1       -0.2044
      5 C          64.1330   83.6339   14.2547 C.ar    1  UNL1        0.0294
      6 C          63.3929   82.8420   13.2179 C.ar    1  UNL1        0.0023
      7 C          62.6873   83.5472   12.0978 C.ar    1  UNL1        0.0014
      8 C          62.7217   85.0445   12.0144 C.ar    1  UNL1        0.0173
      9 C          62.1245   86.0092   11.0333 C.ar    1  UNL1        0.0804
     10 C          61.2979   86.1158    9.7861 C.ar    1  UNL1        0.1178
     11 N          61.1581   87.5700    9.4457 N.ar    1  UNL1       -0.2223
     12 C          61.8982   88.3620   10.4825 C.ar    1  UNL1        0.1788
     13 N          62.4955   87.3974   11.4637 N.ar    1  UNL1       -0.3068
     14 C          63.9061   88.4369   13.4822 C.3     1  UNL1        0.0565
     15 O          61.9129   90.0969   13.6288 O.3     1  UNL1       -0.3844
     16 C          63.3514   89.8194   13.3064 C.3     1  UNL1        0.1127
     17 H          61.4871   89.2812   13.9355 H       1  UNL1        0.2103
     18 C          64.2350   90.9244   12.8082 C.3     1  UNL1        0.0272
     19 C          64.0914   91.4228   11.4008 C.3     1  UNL1        0.0049
     20 C          64.9750   92.5278   10.9027 C.3     1  UNL1        0.0293
     21 C          66.0022   93.1344   11.8119 C.3     1  UNL1        0.1105
     22 O          66.8859   94.2395   11.3138 O.3     1  UNL1       -0.3845
     23 C          66.1459   92.6360   13.2195 C.3     1  UNL1        0.0293
     24 C          65.2622   91.5310   13.7176 C.3     1  UNL1        0.0049
     25 H          67.4885   94.5157   12.0219 H       1  UNL1        0.2103
@<TRIPOS>BOND
     1    16    15    1
     2    16    14    1
     3     1    14    1
     4     1     2    1
     5     2     3   ar
     6     3     4    1
     7     3     5   ar
     8     5     6   ar
     9     6     7   ar
    10     7     8   ar
    11     8     9    1
    12     9    10   ar
    13    10    11   ar
    14    11    12   ar
    15    12    13   ar
    16    16    18    1
    17    18    19    1
    18    19    20    1
    19    20    21    1
    20    21    22    1
    21    21    23    1
    22    23    24    1
    23    13     1    1
    24    24    18    1
    25     8     2   ar
    26    13     9   ar
    27    15    17    1
    28    22    25    1
@<TRIPOS>MOLECULE
*****
 25 28 0 0 0
SMALL
GASTEIGER

@<TRIPOS>ATOM
      1 C          61.5976   88.2941   11.0148 C.3     1  UNL1        0.1140
      2 C          60.8215   88.0141    9.7620 C.ar    1  UNL1        0.0273
      3 C          59.9967   88.8976    8.8736 C.ar    1  UNL1        0.1379
      4 F          59.8455   90.3545    9.1966 F       1  UNL1       -0.2044
      5 C          59.3231   88.3240    7.6622 C.ar    1  UNL1        0.0294
      6 C          59.4744   86.8671    7.3393 C.ar    1  UNL1        0.0023
      7 C          60.2992   85.9836    8.2276 C.ar    1  UNL1        0.0014
      8 C          60.9727   86.5570    9.4390 C.ar    1  UNL1        0.0173
      9 C          61.8422   85.9366   10.4921 C.ar    1  UNL1        0.0804
     10 C          62.4730   84.6527   10.9433 C.ar    1  UNL1        0.1178
     11 N          63.2490   84.9327   12.1961 N.ar    1  UNL1       -0.2223
     12 C          63.0978   86.3897   12.5191 C.ar    1  UNL1        0.1788
     13 N          62.2283   87.0101   11.4660 N.ar    1  UNL1       -0.3068
     14 C          61.7211   89.6244   11.6966 C.3     1  UNL1        0.0565
     15 O          62.7672   91.1983    9.9137 O.3     1  UNL1       -0.3844
     16 C          62.7976   90.5829   11.2814 C.3     1  UNL1        0.1127
     17 H          61.9921   90.8728    9.4298 H       1  UNL1        0.2103
     18 C          63.9044   90.9260   12.2338 C.3     1  UNL1        0.0272
     19 C          64.0422   90.1756   13.5252 C.3     1  UNL1        0.0049
     20 C          65.1491   90.5187   14.4776 C.3     1  UNL1        0.0293
     21 C          66.1182   91.6123   14.1386 C.3     1  UNL1        0.1105
     22 O          67.2251   91.9554   15.0910 O.3     1  UNL1       -0.3845
     23 C          65.9804   92.3628   12.8471 C.3     1  UNL1        0.0293
     24 C          64.8736   92.0196   11.8947 C.3     1  UNL1        0.0049
     25 H          67.7563   92.6785   14.7224 H       1  UNL1        0.2103
@<TRIPOS>BOND
     1    16    15    1
     2    16    14    1
     3     1    14    1
     4     1     2    1
     5     2     3   ar
     6     3     4    1
     7     3     5   ar
     8     5     6   ar
     9     6     7   ar
    10     7     8   ar
    11     8     9    1
    12     9    10   ar
    13    10    11   ar
    14    11    12   ar
    15    12    13   ar
    16    16    18    1
    17    18    19    1
    18    19    20    1
    19    20    21    1
    20    21    22    1
    21    21    23    1
    22    23    24    1
    23    13     1    1
    24    24    18    1
    25     8     2   ar
    26    13     9   ar
    27    15    17    1
    28    22    25    1
@<TRIPOS>MOLECULE
*****
 25 28 0 0 0
SMALL
GASTEIGER

@<TRIPOS>ATOM
      1 C          63.1774   86.6963   12.5927 C.3     1  UNL1        0.1140
      2 C          63.4484   88.1548   12.8155 C.ar    1  UNL1        0.0273
      3 C          64.2308   88.8807   13.8695 C.ar    1  UNL1        0.1379
      4 F          64.9161   88.1102   14.9588 F       1  UNL1       -0.2044
      5 C          64.3277   90.3772   13.8342 C.ar    1  UNL1        0.0294
      6 C          63.6423   91.1476   12.7449 C.ar    1  UNL1        0.0023
      7 C          62.8600   90.4217   11.6908 C.ar    1  UNL1        0.0014
      8 C          62.7630   88.9252   11.7261 C.ar    1  UNL1        0.0173
      9 C          62.0685   87.9430   10.8301 C.ar    1  UNL1        0.0804
     10 C          61.2156   87.8122    9.6031 C.ar    1  UNL1        0.1178
     11 N          60.9446   86.3538    9.3804 N.ar    1  UNL1       -0.2223
     12 C          61.6300   85.5833   10.4697 C.ar    1  UNL1        0.1788
     13 N          62.3246   86.5655   11.3657 N.ar    1  UNL1       -0.3068
     14 C          63.6724   85.5670   13.4469 C.3     1  UNL1        0.0565
     15 O          61.7641   84.8634   15.0636 O.3     1  UNL1       -0.3844
     16 C          62.7120   84.5303   13.9498 C.3     1  UNL1        0.1127
     17 H          61.9021   85.7824   15.3417 H       1  UNL1        0.2103
     18 C          62.6996   83.1604   13.3389 C.3     1  UNL1        0.0272
     19 C          62.1226   82.0045   14.1011 C.3     1  UNL1        0.0049
     20 C          62.1102   80.6346   13.4902 C.3     1  UNL1        0.0293
     21 C          62.6747   80.4206   12.1171 C.3     1  UNL1        0.1105
     22 O          62.6623   79.0506   11.5062 O.3     1  UNL1       -0.3845
     23 C          63.2517   81.5765   11.3548 C.3     1  UNL1        0.0293
     24 C          63.2641   82.9464   11.9657 C.3     1  UNL1        0.0049
     25 H          63.0614   79.0869   10.6229 H       1  UNL1        0.2103
@<TRIPOS>BOND
     1    16    15    1
     2    16    14    1
     3     1    14    1
     4     1     2    1
     5     2     3   ar
     6     3     4    1
     7     3     5   ar
     8     5     6   ar
     9     6     7   ar
    10     7     8   ar
    11     8     9    1
    12     9    10   ar
    13    10    11   ar
    14    11    12   ar
    15    12    13   ar
    16    16    18    1
    17    18    19    1
    18    19    20    1
    19    20    21    1
    20    21    22    1
    21    21    23    1
    22    23    24    1
    23    13     1    1
    24    24    18    1
    25     8     2   ar
    26    13     9   ar
    27    15    17    1
    28    22    25    1
@<TRIPOS>MOLECULE
*****
 25 28 0 0 0
SMALL
GASTEIGER

@<TRIPOS>ATOM
      1 C          63.1993   88.4888   12.1417 C.3     1  UNL1        0.1140
      2 C          63.4904   87.3194   13.0351 C.ar    1  UNL1        0.0273
      3 C          63.2820   85.8446   12.8578 C.ar    1  UNL1        0.1379
      4 F          62.6763   85.3198   11.5900 F       1  UNL1       -0.2044
      5 C          63.6795   84.8946   13.9485 C.ar    1  UNL1        0.0294
      6 C          64.2852   85.4195   15.2163 C.ar    1  UNL1        0.0023
      7 C          64.4936   86.8943   15.3936 C.ar    1  UNL1        0.0014
      8 C          64.0961   87.8443   14.3030 C.ar    1  UNL1        0.0173
      9 C          64.1795   89.3380   14.1933 C.ar    1  UNL1        0.0804
     10 C          64.6054   90.5855   14.9091 C.ar    1  UNL1        0.1178
     11 N          64.3143   91.7547   14.0158 N.ar    1  UNL1       -0.2223
     12 C          63.7085   91.2299   12.7478 C.ar    1  UNL1        0.1788
     13 N          63.6252   89.7363   12.8576 N.ar    1  UNL1       -0.3068
     14 C          62.5894   88.4223   10.7729 C.3     1  UNL1        0.0565
     15 O          60.2756   87.4873   11.4954 O.3     1  UNL1       -0.3844
     16 C          61.4133   87.5268   10.5186 C.3     1  UNL1        0.1127
     17 H          60.4578   88.0954   12.2288 H       1  UNL1        0.2103
     18 C          61.3749   86.6707    9.2875 C.3     1  UNL1        0.0272
     19 C          62.6138   85.9601    8.8291 C.3     1  UNL1        0.0049
     20 C          62.5753   85.1040    7.5980 C.3     1  UNL1        0.0293
     21 C          61.2980   84.9585    6.8253 C.3     1  UNL1        0.1105
     22 O          61.2595   84.1024    5.5942 O.3     1  UNL1       -0.3845
     23 C          60.0590   85.6690    7.2837 C.3     1  UNL1        0.0293
     24 C          60.0974   86.5251    8.5148 C.3     1  UNL1        0.0049
     25 H          60.3655   84.1167    5.2182 H       1  UNL1        0.2103
@<TRIPOS>BOND
     1    16    15    1
     2    16    14    1
     3     1    14    1
     4     1     2    1
     5     2     3   ar
     6     3     4    1
     7     3     5   ar
     8     5     6   ar
     9     6     7   ar
    10     7     8   ar
    11     8     9    1
    12     9    10   ar
    13    10    11   ar
    14    11    12   ar
    15    12    13   ar
    16    16    18    1
    17    18    19    1
    18    19    20    1
    19    20    21    1
    20    21    22    1
    21    21    23    1
    22    23    24    1
    23    13     1    1
    24    24    18    1
    25     8     2   ar
    26    13     9   ar
    27    15    17    1
    28    22    25    1
@<TRIPOS>MOLECULE
*****
 25 28 0 0 0
SMALL
GASTEIGER

@<TRIPOS>ATOM
      1 C          63.1558   88.4528   12.3367 C.3     1  UNL1        0.1140
      2 C          62.3440   87.9603   11.1754 C.ar    1  UNL1        0.0273
      3 C          61.6625   88.6805   10.0499 C.ar    1  UNL1        0.1379
      4 F          61.7362   90.1761    9.9628 F       1  UNL1       -0.2044
      5 C          60.9072   87.9050    9.0115 C.ar    1  UNL1        0.0294
      6 C          60.8335   86.4094    9.0987 C.ar    1  UNL1        0.0023
      7 C          61.5150   85.6892   10.2242 C.ar    1  UNL1        0.0014
      8 C          62.2703   86.4646   11.2626 C.ar    1  UNL1        0.0173
      9 C          63.0365   86.0327   12.4777 C.ar    1  UNL1        0.0804
     10 C          63.4644   84.8414   13.2825 C.ar    1  UNL1        0.1178
     11 N          64.2761   85.3340   14.4437 N.ar    1  UNL1       -0.2223
     12 C          64.3499   86.8296   14.3566 C.ar    1  UNL1        0.1788
     13 N          63.5837   87.2615   13.1415 N.ar    1  UNL1       -0.3068
     14 C          63.4823   89.8851   12.6399 C.3     1  UNL1        0.0565
     15 O          62.6031   89.9272   15.0844 O.3     1  UNL1       -0.3844
     16 C          63.6225   90.3373   14.0632 C.3     1  UNL1        0.1127
     17 H          61.9258   89.3762   14.6619 H       1  UNL1        0.2103
     18 C          64.7822   91.1995   14.4654 C.3     1  UNL1        0.0272
     19 C          65.8579   91.5214   13.4709 C.3     1  UNL1        0.0049
     20 C          67.0175   92.3836   13.8731 C.3     1  UNL1        0.0293
     21 C          67.1015   92.9239   15.2699 C.3     1  UNL1        0.1105
     22 O          68.2611   93.7862   15.6721 O.3     1  UNL1       -0.3845
     23 C          66.0257   92.6020   16.2645 C.3     1  UNL1        0.0293
     24 C          64.8661   91.7398   15.8623 C.3     1  UNL1        0.0049
     25 H          68.1620   94.0489   16.6006 H       1  UNL1        0.2103
@<TRIPOS>BOND
     1    16    15    1
     2    16    14    1
     3     1    14    1
     4     1     2    1
     5     2     3   ar
     6     3     4    1
     7     3     5   ar
     8     5     6   ar
     9     6     7   ar
    10     7     8   ar
    11     8     9    1
    12     9    10   ar
    13    10    11   ar
    14    11    12   ar
    15    12    13   ar
    16    16    18    1
    17    18    19    1
    18    19    20    1
    19    20    21    1
    20    21    22    1
    21    21    23    1
    22    23    24    1
    23    13     1    1
    24    24    18    1
    25     8     2   ar
    26    13     9   ar
    27    15    17    1
    28    22    25    1
@<TRIPOS>MOLECULE
*****
 25 28 0 0 0
SMALL
GASTEIGER

@<TRIPOS>ATOM
      1 C          62.9689   84.6932   13.2000 C.3     1  UNL1        0.1140
      2 C          62.7825   85.3219   11.8508 C.ar    1  UNL1        0.0273
      3 C          62.5789   86.7462   11.4267 C.ar    1  UNL1        0.1379
      4 F          62.5354   87.8363   12.4559 F       1  UNL1       -0.2044
      5 C          62.4187   87.0803    9.9731 C.ar    1  UNL1        0.0294
      6 C          62.4622   85.9900    8.9438 C.ar    1  UNL1        0.0023
      7 C          62.6658   84.5657    9.3679 C.ar    1  UNL1        0.0014
      8 C          62.8260   84.2316   10.8215 C.ar    1  UNL1        0.0173
      9 C          63.0392   82.9292   11.5344 C.ar    1  UNL1        0.0804
     10 C          63.1978   81.4505   11.3388 C.ar    1  UNL1        0.1178
     11 N          63.3842   80.8219   12.6879 N.ar    1  UNL1       -0.2223
     12 C          63.3407   81.9121   13.7173 C.ar    1  UNL1        0.1788
     13 N          63.1275   83.2145   13.0044 N.ar    1  UNL1       -0.3068
     14 C          62.9925   85.4164   14.5139 C.3     1  UNL1        0.0565
     15 O          65.5550   85.6224   14.8897 O.3     1  UNL1       -0.3844
     16 C          64.1873   86.2386   14.8962 C.3     1  UNL1        0.1127
     17 H          65.4899   84.6938   14.6168 H       1  UNL1        0.2103
     18 C          64.0147   87.6770   15.2850 C.3     1  UNL1        0.0272
     19 C          63.2753   88.0308   16.5411 C.3     1  UNL1        0.0049
     20 C          63.1027   89.4692   16.9299 C.3     1  UNL1        0.0293
     21 C          63.6694   90.5538   16.0625 C.3     1  UNL1        0.1105
     22 O          63.4967   91.9922   16.4513 O.3     1  UNL1       -0.3845
     23 C          64.4088   90.2000   14.8062 C.3     1  UNL1        0.0293
     24 C          64.5815   88.7616   14.4175 C.3     1  UNL1        0.0049
     25 H          63.9193   92.5595   15.7876 H       1  UNL1        0.2103
@<TRIPOS>BOND
     1    16    15    1
     2    16    14    1
     3     1    14    1
     4     1     2    1
     5     2     3   ar
     6     3     4    1
     7     3     5   ar
     8     5     6   ar
     9     6     7   ar
    10     7     8   ar
    11     8     9    1
    12     9    10   ar
    13    10    11   ar
    14    11    12   ar
    15    12    13   ar
    16    16    18    1
    17    18    19    1
    18    19    20    1
    19    20    21    1
    20    21    22    1
    21    21    23    1
    22    23    24    1
    23    13     1    1
    24    24    18    1
    25     8     2   ar
    26    13     9   ar
    27    15    17    1
    28    22    25    1
@<TRIPOS>MOLECULE
*****
 25 28 0 0 0
SMALL
GASTEIGER

@<TRIPOS>ATOM
      1 C          63.1415   88.5776   12.0435 C.3     1  UNL1        0.1140
      2 C          63.8339   89.7494   12.6740 C.ar    1  UNL1        0.0273
      3 C          63.9744   91.1806   12.2476 C.ar    1  UNL1        0.1379
      4 F          63.3474   91.6467   10.9672 F       1  UNL1       -0.2044
      5 C          64.7420   92.1458   13.1017 C.ar    1  UNL1        0.0294
      6 C          65.3690   91.6796   14.3821 C.ar    1  UNL1        0.0023
      7 C          65.2285   90.2483   14.8085 C.ar    1  UNL1        0.0014
      8 C          64.4609   89.2832   13.9544 C.ar    1  UNL1        0.0173
      9 C          64.1561   87.8234   14.1153 C.ar    1  UNL1        0.0804
     10 C          64.3552   86.6331   15.0061 C.ar    1  UNL1        0.1178
     11 N          63.6629   85.4613   14.3755 N.ar    1  UNL1       -0.2223
     12 C          63.0358   85.9274   13.0951 C.ar    1  UNL1        0.1788
     13 N          63.3406   87.3873   12.9342 N.ar    1  UNL1       -0.3068
     14 C          62.3831   88.5933   10.7494 C.3     1  UNL1        0.0565
     15 O          60.1444   87.5100   11.5008 O.3     1  UNL1       -0.3844
     16 C          61.2734   87.6109   10.5184 C.3     1  UNL1        0.1127
     17 H          60.2848   88.1444   12.2210 H       1  UNL1        0.2103
     18 C          61.2927   86.7293    9.3049 C.3     1  UNL1        0.0272
     19 C          60.0594   86.5842    8.4636 C.3     1  UNL1        0.0049
     20 C          60.0787   85.7026    7.2502 C.3     1  UNL1        0.0293
     21 C          61.3314   84.9662    6.8780 C.3     1  UNL1        0.1105
     22 O          61.3507   84.0846    5.6646 O.3     1  UNL1       -0.3845
     23 C          62.5648   85.1113    7.7193 C.3     1  UNL1        0.0293
     24 C          62.5455   85.9929    8.9328 C.3     1  UNL1        0.0049
     25 H          62.2299   83.6864    5.5682 H       1  UNL1        0.2103
@<TRIPOS>BOND
     1    16    15    1
     2    16    14    1
     3     1    14    1
     4     1     2    1
     5     2     3   ar
     6     3     4    1
     7     3     5   ar
     8     5     6   ar
     9     6     7   ar
    10     7     8   ar
    11     8     9    1
    12     9    10   ar
    13    10    11   ar
    14    11    12   ar
    15    12    13   ar
    16    16    18    1
    17    18    19    1
    18    19    20    1
    19    20    21    1
    20    21    22    1
    21    21    23    1
    22    23    24    1
    23    13     1    1
    24    24    18    1
    25     8     2   ar
    26    13     9   ar
    27    15    17    1
    28    22    25    1
