@<TRIPOS>MOLECULE
*****
 25 28 0 0 0
SMALL
GASTEIGER

@<TRIPOS>ATOM
      1 C          63.2812   90.8790   11.5728 C.2     1  UNL1        0.3270
      2 N          63.8480   91.9980   10.7503 N.2     1  UNL1       -0.0380
      3 C          64.9598   92.6315   11.5330 C.2     1  UNL1        0.2637
      4 C          65.8781   93.7768   11.2251 C.2     1  UNL1        0.2821
      5 N          66.9168   94.1947   12.2235 N.2     1  UNL1       -0.0268
      6 C          67.0370   93.4672   13.5297 C.2     1  UNL1        0.3760
      7 N          67.9571   93.6511   14.7000 N.2     1  UNL1       -0.0306
      8 C          67.6074   92.6195   15.7312 C.2     1  UNL1        0.2361
      9 C          66.4711   91.7979   15.1982 C.2     1  UNL1        0.0583
     10 C          66.1186   92.3219   13.8376 C.2     1  UNL1        0.1203
     11 C          65.0800   91.9040   12.8393 C.3     1  UNL1        0.2596
     12 N          64.0426   90.8209   12.8638 N.pl3   1  UNL1       -0.1887
     13 C          63.8077   89.8502   13.9830 C.3     1  UNL1        0.1605
     14 C          63.1942   90.3213   15.2681 C.3     1  UNL1        0.0466
     15 C          62.9594   89.3504   16.3873 C.3     1  UNL1        0.0052
     16 C          63.3381   87.9086   16.2212 C.3     1  UNL1        0.0154
     17 C          63.9517   87.4375   14.9361 C.3     1  UNL1        0.0052
     18 C          64.1865   88.4082   13.8169 C.3     1  UNL1        0.0466
     19 C          63.1033   86.9378   17.3403 C.3     1  UNL1        0.1054
     20 C          62.7825   85.5047   17.0351 C.1     1  UNL1        0.0731
     21 N          62.4618   84.0715   16.7299 N.1     1  UNL1       -0.1959
     22 C          62.3628   88.9310   10.1195 C.3     1  UNL1        0.0450
     23 C          62.1513   89.9765   11.1741 C.3     1  UNL1        0.2165
     24 O          60.8100   90.1196   11.8300 O.3     1  UNL1       -0.3737
     25 H          60.8441   90.8361   12.4830 H       1  UNL1        0.2111
@<TRIPOS>BOND
     1    23    22    1
     2    23    24    1
     3    23     1    1
     4     1     2    2
     5     2     3    1
     6     3     4    2
     7     4     5    1
     8     5     6    2
     9     6     7    1
    10     7     8    2
    11     8     9    1
    12     9    10    2
    13    10    11    1
    14    11    12    1
    15    13    12    1
    16    13    14    1
    17    14    15    1
    18    15    16    1
    19    16    19    1
    20    19    20    1
    21    20    21    3
    22    16    17    1
    23    17    18    1
    24    12     1    1
    25    18    13    1
    26    11     3    1
    27    10     6    1
    28    24    25    1
@<TRIPOS>MOLECULE
*****
 25 28 0 0 0
SMALL
GASTEIGER

@<TRIPOS>ATOM
      1 C          63.6929   90.2536   15.4230 C.2     1  UNL1        0.3270
      2 N          64.6139   91.1863   16.1521 N.2     1  UNL1       -0.0380
      3 C          65.3441   92.0084   15.1318 C.2     1  UNL1        0.2637
      4 C          66.3760   93.0888   15.2652 C.2     1  UNL1        0.2821
      5 N          66.9381   93.7447   14.0388 N.2     1  UNL1       -0.0268
      6 C          66.4682   93.3201   12.6791 C.2     1  UNL1        0.3760
      7 N          66.8377   93.7809   11.3003 N.2     1  UNL1       -0.0306
      8 C          66.0341   92.9853   10.3148 C.2     1  UNL1        0.2361
      9 C          65.1680   92.0328   11.0845 C.2     1  UNL1        0.0583
     10 C          65.4362   92.2397   12.5457 C.2     1  UNL1        0.1203
     11 C          64.8742   91.5838   13.7721 C.3     1  UNL1        0.2596
     12 N          63.8537   90.4993   13.9520 N.pl3   1  UNL1       -0.1887
     13 C          63.1224   89.7857   12.8538 C.3     1  UNL1        0.1605
     14 C          62.1334   90.5286   12.0053 C.3     1  UNL1        0.0466
     15 C          61.4021   89.8150   10.9070 C.3     1  UNL1        0.0052
     16 C          61.6598   88.3585   10.6574 C.3     1  UNL1        0.0154
     17 C          62.6488   87.6157   11.5060 C.3     1  UNL1        0.0052
     18 C          63.3801   88.3292   12.6042 C.3     1  UNL1        0.0466
     19 C          60.9286   87.6450    9.5593 C.3     1  UNL1        0.1054
     20 C          60.1877   88.4303    8.5179 C.1     1  UNL1        0.0731
     21 N          59.4469   89.2156    7.4765 N.1     1  UNL1       -0.1959
     22 C          63.3371   88.1078   16.8439 C.3     1  UNL1        0.0450
     23 C          62.7726   89.2512   16.0540 C.3     1  UNL1        0.2165
     24 O          61.2877   89.3922   15.8952 O.3     1  UNL1       -0.3737
     25 H          61.0928   90.1779   15.3608 H       1  UNL1        0.2111
@<TRIPOS>BOND
     1    23    22    1
     2    23    24    1
     3    23     1    1
     4     1     2    2
     5     2     3    1
     6     3     4    2
     7     4     5    1
     8     5     6    2
     9     6     7    1
    10     7     8    2
    11     8     9    1
    12     9    10    2
    13    10    11    1
    14    11    12    1
    15    13    12    1
    16    13    14    1
    17    14    15    1
    18    15    16    1
    19    16    19    1
    20    19    20    1
    21    20    21    3
    22    16    17    1
    23    17    18    1
    24    12     1    1
    25    18    13    1
    26    11     3    1
    27    10     6    1
    28    24    25    1
@<TRIPOS>MOLECULE
*****
 25 28 0 0 0
SMALL
GASTEIGER

@<TRIPOS>ATOM
      1 C          60.9820   87.1455    8.8170 C.2     1  UNL1        0.3270
      2 N          60.6657   88.6095    8.7359 N.2     1  UNL1       -0.0380
      3 C          61.3286   89.2919    9.8957 C.2     1  UNL1        0.2637
      4 C          61.3650   90.7276   10.3283 C.2     1  UNL1        0.2821
      5 N          62.1274   91.1212   11.5587 N.2     1  UNL1       -0.0268
      6 C          62.8534   90.0789   12.3565 C.2     1  UNL1        0.3760
      7 N          63.6819   90.1664   13.6039 N.2     1  UNL1       -0.0306
      8 C          64.1576   88.7846   13.9421 C.2     1  UNL1        0.2361
      9 C          63.6231   87.8431   12.9039 C.2     1  UNL1        0.0583
     10 C          62.8170   88.6431   11.9239 C.2     1  UNL1        0.1203
     11 C          62.0546   88.2496   10.6935 C.3     1  UNL1        0.2596
     12 N          61.8404   86.9230   10.0268 N.pl3   1  UNL1       -0.1887
     13 C          62.3884   85.6054   10.4889 C.3     1  UNL1        0.1605
     14 C          62.0319   85.0799   11.8478 C.3     1  UNL1        0.0466
     15 C          62.5799   83.7621   12.3098 C.3     1  UNL1        0.0052
     16 C          63.4844   82.9701   11.4129 C.3     1  UNL1        0.0154
     17 C          63.8409   83.4956   10.0540 C.3     1  UNL1        0.0052
     18 C          63.2929   84.8132    9.5919 C.3     1  UNL1        0.0466
     19 C          64.0323   81.6524   11.8750 C.3     1  UNL1        0.1054
     20 C          63.5159   81.0262   13.1364 C.1     1  UNL1        0.0731
     21 N          62.9995   80.3999   14.3978 N.1     1  UNL1       -0.1959
     22 C          61.5263   85.2769    7.0959 C.3     1  UNL1        0.0450
     23 C          60.5208   86.0894    7.8569 C.3     1  UNL1        0.2165
     24 O          59.0542   85.8457    7.6577 O.3     1  UNL1       -0.3737
     25 H          58.5465   86.4509    8.2206 H       1  UNL1        0.2111
@<TRIPOS>BOND
     1    23    22    1
     2    23    24    1
     3    23     1    1
     4     1     2    2
     5     2     3    1
     6     3     4    2
     7     4     5    1
     8     5     6    2
     9     6     7    1
    10     7     8    2
    11     8     9    1
    12     9    10    2
    13    10    11    1
    14    11    12    1
    15    13    12    1
    16    13    14    1
    17    14    15    1
    18    15    16    1
    19    16    19    1
    20    19    20    1
    21    20    21    3
    22    16    17    1
    23    17    18    1
    24    12     1    1
    25    18    13    1
    26    11     3    1
    27    10     6    1
    28    24    25    1
@<TRIPOS>MOLECULE
*****
 25 28 0 0 0
SMALL
GASTEIGER

@<TRIPOS>ATOM
      1 C          63.9985   86.6913   13.9493 C.2     1  UNL1        0.3270
      2 N          63.9038   88.1696   13.7139 N.2     1  UNL1       -0.0380
      3 C          63.1385   88.3884   12.4424 C.2     1  UNL1        0.2637
      4 C          62.7373   89.6370   11.7147 C.2     1  UNL1        0.2821
      5 N          61.9578   89.5426   10.4365 N.2     1  UNL1       -0.0268
      6 C          61.5796   88.1994    9.8862 C.2     1  UNL1        0.3760
      7 N          60.8200   87.7960    8.6573 N.2     1  UNL1       -0.0306
      8 C          60.7518   86.2979    8.6257 C.2     1  UNL1        0.2361
      9 C          61.4693   85.7755    9.8349 C.2     1  UNL1        0.0583
     10 C          61.9810   86.9507   10.6140 C.2     1  UNL1        0.1203
     11 C          62.7604   87.0452   11.8921 C.3     1  UNL1        0.2596
     12 N          63.2919   85.9963   12.8234 N.pl3   1  UNL1       -0.1887
     13 C          63.1429   84.5130   12.6579 C.3     1  UNL1        0.1605
     14 C          62.3245   83.7273   13.6391 C.3     1  UNL1        0.0466
     15 C          62.1755   82.2438   13.4736 C.3     1  UNL1        0.0052
     16 C          62.8450   81.5462   12.3269 C.3     1  UNL1        0.0154
     17 C          63.6635   82.3319   11.3456 C.3     1  UNL1        0.0052
     18 C          63.8124   83.8152   11.5111 C.3     1  UNL1        0.0466
     19 C          62.6960   80.0628   12.1613 C.3     1  UNL1        0.1054
     20 C          62.7797   79.4484   10.7955 C.1     1  UNL1        0.0731
     21 N          62.8634   78.8340    9.4297 N.1     1  UNL1       -0.1959
     22 C          63.9260   85.7766   16.3800 C.3     1  UNL1        0.0450
     23 C          64.6802   86.0249   15.1074 C.3     1  UNL1        0.2165
     24 O          66.1162   85.6067   14.9929 O.3     1  UNL1       -0.3737
     25 H          66.4513   85.8385   14.1126 H       1  UNL1        0.2111
@<TRIPOS>BOND
     1    23    22    1
     2    23    24    1
     3    23     1    1
     4     1     2    2
     5     2     3    1
     6     3     4    2
     7     4     5    1
     8     5     6    2
     9     6     7    1
    10     7     8    2
    11     8     9    1
    12     9    10    2
    13    10    11    1
    14    11    12    1
    15    13    12    1
    16    13    14    1
    17    14    15    1
    18    15    16    1
    19    16    19    1
    20    19    20    1
    21    20    21    3
    22    16    17    1
    23    17    18    1
    24    12     1    1
    25    18    13    1
    26    11     3    1
    27    10     6    1
    28    24    25    1
@<TRIPOS>MOLECULE
*****
 25 28 0 0 0
SMALL
GASTEIGER

@<TRIPOS>ATOM
      1 C          63.4905   88.6557   13.0907 C.2     1  UNL1        0.3270
      2 N          64.3450   88.1568   14.2181 N.2     1  UNL1       -0.0380
      3 C          64.3218   86.6572   14.1888 C.2     1  UNL1        0.2637
      4 C          64.9796   85.6261   15.0571 C.2     1  UNL1        0.2821
      5 N          64.7685   84.1670   14.7800 N.2     1  UNL1       -0.0268
      6 C          63.8997   83.7392   13.6345 C.2     1  UNL1        0.3760
      7 N          63.5100   82.3846   13.1218 N.2     1  UNL1       -0.0306
      8 C          62.6114   82.5785   11.9365 C.2     1  UNL1        0.2361
      9 C          62.4457   84.0531   11.7167 C.2     1  UNL1        0.0583
     10 C          63.2419   84.7704   12.7662 C.2     1  UNL1        0.1203
     11 C          63.4530   86.2294   13.0433 C.3     1  UNL1        0.2596
     12 N          62.9392   87.4646   12.3647 N.pl3   1  UNL1       -0.1887
     13 C          62.0332   87.5020   11.1698 C.3     1  UNL1        0.1605
     14 C          60.6591   88.0916   11.2887 C.3     1  UNL1        0.0466
     15 C          59.7531   88.1290   10.0937 C.3     1  UNL1        0.0052
     16 C          60.2213   87.5768    8.7800 C.3     1  UNL1        0.0154
     17 C          61.5954   86.9871    8.6612 C.3     1  UNL1        0.0052
     18 C          62.5014   86.9497    9.8561 C.3     1  UNL1        0.0466
     19 C          59.3153   87.6142    7.5852 C.3     1  UNL1        0.1054
     20 C          59.1960   88.8699    6.7734 C.1     1  UNL1        0.0731
     21 N          59.0767   90.1256    5.9616 N.1     1  UNL1       -0.1959
     22 C          63.2123   90.5317   11.3150 C.3     1  UNL1        0.0450
     23 C          63.2327   90.0934   12.7494 C.3     1  UNL1        0.2165
     24 O          62.9952   91.0928   13.8425 O.3     1  UNL1       -0.3737
     25 H          63.0420   90.6478   14.7032 H       1  UNL1        0.2111
@<TRIPOS>BOND
     1    23    22    1
     2    23    24    1
     3    23     1    1
     4     1     2    2
     5     2     3    1
     6     3     4    2
     7     4     5    1
     8     5     6    2
     9     6     7    1
    10     7     8    2
    11     8     9    1
    12     9    10    2
    13    10    11    1
    14    11    12    1
    15    13    12    1
    16    13    14    1
    17    14    15    1
    18    15    16    1
    19    16    19    1
    20    19    20    1
    21    20    21    3
    22    16    17    1
    23    17    18    1
    24    12     1    1
    25    18    13    1
    26    11     3    1
    27    10     6    1
    28    24    25    1
@<TRIPOS>MOLECULE
*****
 25 28 0 0 0
SMALL
GASTEIGER

@<TRIPOS>ATOM
      1 C          62.7273   83.0767   14.2254 C.2     1  UNL1        0.3270
      2 N          62.7668   83.3853   15.6928 N.2     1  UNL1       -0.0380
      3 C          63.0478   84.8503   15.8510 C.2     1  UNL1        0.2637
      4 C          63.1988   85.7178   17.0652 C.2     1  UNL1        0.2821
      5 N          63.4840   87.1823   16.9098 N.2     1  UNL1       -0.0268
      6 C          63.6182   87.7791   15.5402 C.2     1  UNL1        0.3760
      7 N          63.8951   89.1790   15.0781 N.2     1  UNL1       -0.0306
      8 C          63.9152   89.1765   13.5783 C.2     1  UNL1        0.2361
      9 C          63.6507   87.7751   13.1134 C.2     1  UNL1        0.0583
     10 C          63.4671   86.9114   14.3260 C.2     1  UNL1        0.1203
     11 C          63.1819   85.4470   14.4814 C.3     1  UNL1        0.2596
     12 N          62.9839   84.3509   13.4767 N.pl3   1  UNL1       -0.1887
     13 C          63.0336   84.5024   11.9852 C.3     1  UNL1        0.1605
     14 C          62.1133   85.4673   11.2983 C.3     1  UNL1        0.0466
     15 C          62.1631   85.6187    9.8067 C.3     1  UNL1        0.0052
     16 C          63.1332   84.8053    9.0022 C.3     1  UNL1        0.0154
     17 C          64.0535   83.8404    9.6892 C.3     1  UNL1        0.0052
     18 C          64.0037   83.6889   11.1807 C.3     1  UNL1        0.0466
     19 C          63.1829   84.9568    7.5107 C.3     1  UNL1        0.1054
     20 C          62.0206   84.5134    6.6726 C.1     1  UNL1        0.0731
     21 N          60.8583   84.0700    5.8346 N.1     1  UNL1       -0.1959
     22 C          61.1572   81.0460   13.8239 C.3     1  UNL1        0.0450
     23 C          62.4755   81.7303   13.6141 C.3     1  UNL1        0.2165
     24 O          63.5419   81.0681   12.7930 O.3     1  UNL1       -0.3737
     25 H          64.3244   81.6402   12.7573 H       1  UNL1        0.2111
@<TRIPOS>BOND
     1    23    22    1
     2    23    24    1
     3    23     1    1
     4     1     2    2
     5     2     3    1
     6     3     4    2
     7     4     5    1
     8     5     6    2
     9     6     7    1
    10     7     8    2
    11     8     9    1
    12     9    10    2
    13    10    11    1
    14    11    12    1
    15    13    12    1
    16    13    14    1
    17    14    15    1
    18    15    16    1
    19    16    19    1
    20    19    20    1
    21    20    21    3
    22    16    17    1
    23    17    18    1
    24    12     1    1
    25    18    13    1
    26    11     3    1
    27    10     6    1
    28    24    25    1
@<TRIPOS>MOLECULE
*****
 25 28 0 0 0
SMALL
GASTEIGER

@<TRIPOS>ATOM
      1 C          63.4568   87.4292   13.0418 C.2     1  UNL1        0.3270
      2 N          64.0104   87.0933   14.3948 N.2     1  UNL1       -0.0380
      3 C          63.9415   85.6048   14.5673 C.2     1  UNL1        0.2637
      4 C          64.3446   84.7057   15.6982 C.2     1  UNL1        0.2821
      5 N          64.1516   83.2226   15.5828 N.2     1  UNL1       -0.0268
      6 C          63.5554   82.6387   14.3363 C.2     1  UNL1        0.3760
      7 N          63.2467   81.2259   13.9381 N.2     1  UNL1       -0.0306
      8 C          62.6527   81.2519   12.5609 C.2     1  UNL1        0.2361
      9 C          62.5944   82.6807   12.1081 C.2     1  UNL1        0.0583
     10 C          63.1523   83.5378   13.2054 C.2     1  UNL1        0.1203
     11 C          63.3454   85.0209   13.3208 C.3     1  UNL1        0.2596
     12 N          63.0458   86.1484   12.3780 N.pl3   1  UNL1       -0.1887
     13 C          62.4414   86.0181   11.0114 C.3     1  UNL1        0.1605
     14 C          61.0499   86.5168   10.7561 C.3     1  UNL1        0.0466
     15 C          60.4455   86.3865    9.3894 C.3     1  UNL1        0.0052
     16 C          61.2325   85.7574    8.2782 C.3     1  UNL1        0.0154
     17 C          62.6239   85.2586    8.5335 C.3     1  UNL1        0.0052
     18 C          63.2283   85.3890    9.9001 C.3     1  UNL1        0.0466
     19 C          60.6280   85.6270    6.9116 C.3     1  UNL1        0.1054
     20 C          61.2845   84.7570    5.8810 C.1     1  UNL1        0.0731
     21 N          61.9410   83.8870    4.8504 N.1     1  UNL1       -0.1959
     22 C          63.7252   90.0035   13.2684 C.3     1  UNL1        0.0450
     23 C          63.3356   88.8046   12.4555 C.3     1  UNL1        0.2165
     24 O          62.8246   88.9810   11.0562 O.3     1  UNL1       -0.3737
     25 H          62.6200   88.1129   10.6749 H       1  UNL1        0.2111
@<TRIPOS>BOND
     1    23    22    1
     2    23    24    1
     3    23     1    1
     4     1     2    2
     5     2     3    1
     6     3     4    2
     7     4     5    1
     8     5     6    2
     9     6     7    1
    10     7     8    2
    11     8     9    1
    12     9    10    2
    13    10    11    1
    14    11    12    1
    15    13    12    1
    16    13    14    1
    17    14    15    1
    18    15    16    1
    19    16    19    1
    20    19    20    1
    21    20    21    3
    22    16    17    1
    23    17    18    1
    24    12     1    1
    25    18    13    1
    26    11     3    1
    27    10     6    1
    28    24    25    1
@<TRIPOS>MOLECULE
*****
 25 28 0 0 0
SMALL
GASTEIGER

@<TRIPOS>ATOM
      1 C          63.3462   84.1252   12.4366 C.2     1  UNL1        0.3270
      2 N          64.1538   84.2600   13.6934 N.2     1  UNL1       -0.0380
      3 C          64.2684   85.7204   14.0163 C.2     1  UNL1        0.2637
      4 C          64.9484   86.4502   15.1364 C.2     1  UNL1        0.2821
      5 N          64.8917   87.9479   15.1994 N.2     1  UNL1       -0.0268
      6 C          64.1550   88.7156   14.1422 C.2     1  UNL1        0.3760
      7 N          63.9294   90.1850   13.9424 N.2     1  UNL1       -0.0306
      8 C          63.1100   90.3632   12.6987 C.2     1  UNL1        0.2361
      9 C          62.8291   89.0040   12.1299 C.2     1  UNL1        0.0583
     10 C          63.4749   87.9857   13.0220 C.2     1  UNL1        0.1203
     11 C          63.5316   86.4881   12.9591 C.3     1  UNL1        0.2596
     12 N          62.9617   85.5022   11.9827 N.pl3   1  UNL1       -0.1887
     13 C          62.1497   85.8349   10.7662 C.3     1  UNL1        0.1605
     14 C          62.6321   85.4231    9.4069 C.3     1  UNL1        0.0466
     15 C          61.8201   85.7558    8.1903 C.3     1  UNL1        0.0052
     16 C          60.5258   86.5004    8.3330 C.3     1  UNL1        0.0154
     17 C          60.0435   86.9122    9.6923 C.3     1  UNL1        0.0052
     18 C          60.8554   86.5795   10.9089 C.3     1  UNL1        0.0466
     19 C          59.7139   86.8331    7.1165 C.3     1  UNL1        0.1054
     20 C          59.4142   88.2646    6.7833 C.1     1  UNL1        0.0731
     21 N          59.1144   89.6960    6.4501 N.1     1  UNL1       -0.1959
     22 C          63.7487   82.3954   10.5403 C.3     1  UNL1        0.0450
     23 C          62.9863   82.8392   11.7535 C.3     1  UNL1        0.2165
     24 O          61.8641   81.9969   12.2837 O.3     1  UNL1       -0.3737
     25 H          61.4805   82.4242   13.0655 H       1  UNL1        0.2111
@<TRIPOS>BOND
     1    23    22    1
     2    23    24    1
     3    23     1    1
     4     1     2    2
     5     2     3    1
     6     3     4    2
     7     4     5    1
     8     5     6    2
     9     6     7    1
    10     7     8    2
    11     8     9    1
    12     9    10    2
    13    10    11    1
    14    11    12    1
    15    13    12    1
    16    13    14    1
    17    14    15    1
    18    15    16    1
    19    16    19    1
    20    19    20    1
    21    20    21    3
    22    16    17    1
    23    17    18    1
    24    12     1    1
    25    18    13    1
    26    11     3    1
    27    10     6    1
    28    24    25    1
@<TRIPOS>MOLECULE
*****
 25 28 0 0 0
SMALL
GASTEIGER

@<TRIPOS>ATOM
      1 C          63.8967   94.5343    0.2772 C.2     1  UNL1        0.3270
      2 N          64.1993   95.0162   -1.1106 N.2     1  UNL1       -0.0380
      3 C          63.0241   94.6865   -1.9825 C.2     1  UNL1        0.2637
      4 C          62.7579   94.9220   -3.4397 C.2     1  UNL1        0.2821
      5 N          61.4627   94.4718   -4.0480 N.2     1  UNL1       -0.0268
      6 C          60.4338   93.7861   -3.1989 C.2     1  UNL1        0.3760
      7 N          59.0754   93.2351   -3.5170 N.2     1  UNL1       -0.0306
      8 C          58.5020   92.6591   -2.2562 C.2     1  UNL1        0.2361
      9 C          59.5060   92.8541   -1.1590 C.2     1  UNL1        0.0583
     10 C          60.6999   93.5506   -1.7416 C.2     1  UNL1        0.1203
     11 C          61.9951   94.0008   -1.1334 C.3     1  UNL1        0.2596
     12 N          62.5344   93.9067    0.2632 N.pl3   1  UNL1       -0.1887
     13 C          61.8343   93.2929    1.4392 C.3     1  UNL1        0.1605
     14 C          60.4799   93.7903    1.8492 C.3     1  UNL1        0.0466
     15 C          59.7798   93.1764    3.0253 C.3     1  UNL1        0.0052
     16 C          60.4342   92.0652    3.7913 C.3     1  UNL1        0.0154
     17 C          61.7886   91.5678    3.3814 C.3     1  UNL1        0.0052
     18 C          62.4887   92.1816    2.2053 C.3     1  UNL1        0.0466
     19 C          59.7341   91.4514    4.9673 C.3     1  UNL1        0.1054
     20 C          58.2358   91.4623    5.0377 C.1     1  UNL1        0.0731
     21 N          56.7375   91.4733    5.1082 N.1     1  UNL1       -0.1959
     22 C          64.7960   95.9182    2.2837 C.3     1  UNL1        0.0450
     23 C          64.7981   94.6583    1.4697 C.3     1  UNL1        0.2165
     24 O          65.7016   93.5224    1.8482 O.3     1  UNL1       -0.3737
     25 H          65.5798   92.7904    1.2234 H       1  UNL1        0.2111
@<TRIPOS>BOND
     1    23    22    1
     2    23    24    1
     3    23     1    1
     4     1     2    2
     5     2     3    1
     6     3     4    2
     7     4     5    1
     8     5     6    2
     9     6     7    1
    10     7     8    2
    11     8     9    1
    12     9    10    2
    13    10    11    1
    14    11    12    1
    15    13    12    1
    16    13    14    1
    17    14    15    1
    18    15    16    1
    19    16    19    1
    20    19    20    1
    21    20    21    3
    22    16    17    1
    23    17    18    1
    24    12     1    1
    25    18    13    1
    26    11     3    1
    27    10     6    1
    28    24    25    1
