@<TRIPOS>MOLECULE
*****
 44 49 0 0 0
SMALL
GASTEIGER

@<TRIPOS>ATOM
      1 N          60.4174   89.3924    7.3331 N.am    1  UNL1       -0.2964
      2 C          59.3976   89.8999    6.3572 C.2     1  UNL1        0.2461
      3 O          57.9704   89.4504    6.4621 O.2     1  UNL1       -0.2701
      4 H          61.3541   89.6874    7.2643 H       1  UNL1        0.1501
      5 C          59.8051   90.8569    5.2763 C.ar    1  UNL1        0.0550
      6 C          58.7658   91.6724    4.5658 C.ar    1  UNL1        0.0061
      7 C          59.1733   92.6293    3.4850 C.ar    1  UNL1        0.0189
      8 C          60.6200   92.7707    3.1147 C.ar    1  UNL1        0.0788
      9 C          61.6592   91.9552    3.8252 C.ar    1  UNL1        0.0988
     10 C          61.2517   90.9982    4.9060 C.ar    1  UNL1        0.0251
     11 N          62.9984   92.3063    3.2479 N.ar    1  UNL1       -0.2267
     12 C          62.7869   93.3388    2.1806 C.ar    1  UNL1        0.1469
     13 N          61.3169   93.6259    2.0982 N.ar    1  UNL1       -0.3133
     14 C          60.6593   94.5975    1.1636 C.3     1  UNL1        0.0869
     15 C          60.5637   94.2828   -0.2999 C.3     1  UNL1        0.0226
     16 C          59.9061   95.2545   -1.2345 C.3     1  UNL1        0.0019
     17 C          59.3442   96.5407   -0.7056 C.3     1  UNL1        0.0001
     18 C          59.4398   96.8554    0.7579 C.3     1  UNL1        0.0019
     19 C          60.0974   95.8837    1.6925 C.3     1  UNL1        0.0226
     20 C          63.8574   93.9729    1.3427 C.ar    1  UNL1        0.0748
     21 C          63.9540   95.4273    0.9884 C.ar    1  UNL1        0.0468
     22 C          65.1756   95.6172    0.1388 C.ar    1  UNL1        0.1799
     23 O          65.8339   94.2802   -0.0318 O.2     1  UNL1       -0.4472
     24 C          65.0192   93.2640    0.7123 C.ar    1  UNL1        0.1827
     25 C          60.0099   88.4354    8.4140 C.3     1  UNL1        0.1260
     26 C          59.7727   87.6662    9.6796 C.3     1  UNL1        0.0269
     27 C          58.8973   86.4930    9.3517 C.3     1  UNL1        0.0022
     28 C          58.5936   86.5371    7.8835 C.3     1  UNL1        0.0022
     29 C          59.2813   87.7377    7.3039 C.3     1  UNL1        0.0269
     30 N          62.1459   88.8646    9.8293 N.am    1  UNL1       -0.2826
     31 C          60.8238   89.3332    9.2981 C.2     1  UNL1        0.2419
     32 O          60.3154   90.6996    9.6510 O.2     1  UNL1       -0.2731
     33 H          62.4796   87.9678    9.5977 H       1  UNL1        0.1549
     34 C          64.5875   91.5579   12.4817 C.ar    1  UNL1        0.0001
     35 C          63.9603   90.3177   13.0459 C.ar    1  UNL1        0.0013
     36 C          63.1464   89.4199   12.1618 C.ar    1  UNL1        0.0147
     37 C          62.9598   89.7624   10.7134 C.ar    1  UNL1        0.0503
     38 C          63.5870   91.0026   10.1492 C.ar    1  UNL1        0.0147
     39 C          64.4008   91.9004   11.0333 C.ar    1  UNL1        0.0013
     40 C          66.5093   91.8835   14.1993 C.2     1  UNL1        0.0151
     41 C          65.4013   92.4557   13.3658 C.2     1  UNL1        0.0012
     42 O          68.6868   93.2281   14.6469 O.co2   1  UNL1       -0.5446
     43 C          67.3231   92.7813   15.0834 C.2     1  UNL1        0.0729
     44 O          66.7732   93.2323   16.4042 O.co2   1  UNL1       -0.5446
@<TRIPOS>UNITY_ATOM_ATTR
42 1
charge -1
@<TRIPOS>BOND
     1    42    43   ar
     2    43    44   ar
     3    43    40    1
     4    40    41    2
     5    41    34    1
     6    34    35   ar
     7    35    36   ar
     8    36    37   ar
     9    37    30    1
    10    30    31   am
    11    31    32    2
    12    31    25    1
    13    25     1    1
    14     1     2   am
    15     2     3    2
    16     2     5    1
    17     5     6   ar
    18     6     7   ar
    19     7     8   ar
    20     8     9   ar
    21     9    10   ar
    22     9    11   ar
    23    11    12   ar
    24    12    20    1
    25    20    21   ar
    26    21    22   ar
    27    22    23   ar
    28    23    24   ar
    29    12    13   ar
    30    13    14    1
    31    14    15    1
    32    15    16    1
    33    16    17    1
    34    17    18    1
    35    18    19    1
    36    25    26    1
    37    26    27    1
    38    27    28    1
    39    28    29    1
    40    37    38   ar
    41    38    39   ar
    42    39    34   ar
    43    29    25    1
    44    10     5   ar
    45    24    20   ar
    46    19    14    1
    47    13     8   ar
    48    30    33    1
    49     1     4    1
@<TRIPOS>MOLECULE
*****
 44 49 0 0 0
SMALL
GASTEIGER

@<TRIPOS>ATOM
      1 N          63.5697   85.4218   12.0922 N.am    1  UNL1       -0.2964
      2 C          62.9928   86.4911   12.9718 C.2     1  UNL1        0.2461
      3 O          61.6660   86.2789   13.6385 O.2     1  UNL1       -0.2701
      4 H          64.4405   85.5610   11.6547 H       1  UNL1        0.1501
      5 C          63.7428   87.7726   13.1848 C.ar    1  UNL1        0.0550
      6 C          64.6614   87.9173   14.3618 C.ar    1  UNL1        0.0061
      7 C          65.4113   89.1987   14.5748 C.ar    1  UNL1        0.0189
      8 C          65.2427   90.3355   13.6107 C.ar    1  UNL1        0.0788
      9 C          64.3242   90.1908   12.4338 C.ar    1  UNL1        0.0988
     10 C          63.5742   88.9093   12.2208 C.ar    1  UNL1        0.0251
     11 N          64.3596   91.4739   11.6577 N.ar    1  UNL1       -0.2267
     12 C          65.3000   92.4117   12.3550 C.ar    1  UNL1        0.1469
     13 N          65.8459   91.7081   13.5621 N.ar    1  UNL1       -0.3133
     14 C          66.8232   92.2771   14.5475 C.3     1  UNL1        0.0869
     15 C          66.3548   92.7046   15.9069 C.3     1  UNL1        0.0226
     16 C          67.3322   93.2736   16.8922 C.3     1  UNL1        0.0019
     17 C          68.7779   93.4152   16.5182 C.3     1  UNL1        0.0001
     18 C          69.2463   92.9877   15.1588 C.3     1  UNL1        0.0019
     19 C          68.2689   92.4187   14.1735 C.3     1  UNL1        0.0226
     20 C          65.6357   93.8079   11.9214 C.ar    1  UNL1        0.0748
     21 C          65.4501   94.3719   10.5439 C.ar    1  UNL1        0.0468
     22 C          65.9156   95.7978   10.5603 C.ar    1  UNL1        0.1799
     23 O          66.3888   96.1149   11.9479 O.2     1  UNL1       -0.4472
     24 C          66.2158   94.8850   12.7891 C.ar    1  UNL1        0.1827
     25 C          62.8197   84.1402   11.8792 C.3     1  UNL1        0.1260
     26 C          61.9416   83.0123   11.4247 C.3     1  UNL1        0.0269
     27 C          62.1687   81.8488   12.3438 C.3     1  UNL1        0.0022
     28 C          63.1871   82.2576   13.3663 C.3     1  UNL1        0.0022
     29 C          63.5895   83.6739   13.0792 C.3     1  UNL1        0.0269
     30 N          61.3210   86.0592   10.9729 N.am    1  UNL1       -0.2826
     31 C          62.2067   84.8745   10.7238 C.2     1  UNL1        0.2419
     32 O          62.4794   84.4241    9.3193 O.2     1  UNL1       -0.2731
     33 H          61.1420   86.3548   11.8948 H       1  UNL1        0.1549
     34 C          59.4820   88.2622    7.5066 C.ar    1  UNL1        0.0001
     35 C          60.0676   89.0275    8.6561 C.ar    1  UNL1        0.0013
     36 C          60.6806   88.2932    9.8115 C.ar    1  UNL1        0.0147
     37 C          60.7080   86.7935    9.8175 C.ar    1  UNL1        0.0503
     38 C          60.1224   86.0281    8.6680 C.ar    1  UNL1        0.0147
     39 C          59.5094   86.7624    7.5126 C.ar    1  UNL1        0.0013
     40 C          58.8632   90.4963    6.3338 C.2     1  UNL1        0.0151
     41 C          58.8690   88.9965    6.3512 C.2     1  UNL1        0.0012
     42 O          56.7582   91.3026    5.0420 O.co2   1  UNL1       -0.5446
     43 C          58.2502   91.2306    5.1783 C.2     1  UNL1        0.0729
     44 O          59.1293   91.8928    4.1592 O.co2   1  UNL1       -0.5446
@<TRIPOS>UNITY_ATOM_ATTR
42 1
charge -1
@<TRIPOS>BOND
     1    42    43   ar
     2    43    44   ar
     3    43    40    1
     4    40    41    2
     5    41    34    1
     6    34    35   ar
     7    35    36   ar
     8    36    37   ar
     9    37    30    1
    10    30    31   am
    11    31    32    2
    12    31    25    1
    13    25     1    1
    14     1     2   am
    15     2     3    2
    16     2     5    1
    17     5     6   ar
    18     6     7   ar
    19     7     8   ar
    20     8     9   ar
    21     9    10   ar
    22     9    11   ar
    23    11    12   ar
    24    12    20    1
    25    20    21   ar
    26    21    22   ar
    27    22    23   ar
    28    23    24   ar
    29    12    13   ar
    30    13    14    1
    31    14    15    1
    32    15    16    1
    33    16    17    1
    34    17    18    1
    35    18    19    1
    36    25    26    1
    37    26    27    1
    38    27    28    1
    39    28    29    1
    40    37    38   ar
    41    38    39   ar
    42    39    34   ar
    43    29    25    1
    44    10     5   ar
    45    24    20   ar
    46    19    14    1
    47    13     8   ar
    48    30    33    1
    49     1     4    1
@<TRIPOS>MOLECULE
*****
 44 49 0 0 0
SMALL
GASTEIGER

@<TRIPOS>ATOM
      1 N          59.1862   90.5760    6.3128 N.am    1  UNL1       -0.2964
      2 C          58.8083   89.3084    7.0201 C.2     1  UNL1        0.2461
      3 O          57.5178   88.6200    6.6874 O.2     1  UNL1       -0.2701
      4 H          60.0332   91.0278    6.5311 H       1  UNL1        0.1501
      5 C          59.7210   88.7291    8.0600 C.ar    1  UNL1        0.0550
      6 C          60.2245   89.5907    9.1799 C.ar    1  UNL1        0.0061
      7 C          61.1372   89.0114   10.2198 C.ar    1  UNL1        0.0189
      8 C          61.5463   87.5705   10.1398 C.ar    1  UNL1        0.0788
      9 C          61.0429   86.7089    9.0200 C.ar    1  UNL1        0.0988
     10 C          60.1302   87.2882    7.9801 C.ar    1  UNL1        0.0251
     11 N          61.6131   85.3334    9.2010 N.ar    1  UNL1       -0.2267
     12 C          62.4690   85.3449   10.4328 C.ar    1  UNL1        0.1469
     13 N          62.4278   86.7275   11.0131 N.ar    1  UNL1       -0.3133
     14 C          63.1424   87.1865   12.2494 C.3     1  UNL1        0.0869
     15 C          63.4424   88.6431   12.4451 C.3     1  UNL1        0.0226
     16 C          64.1570   89.1020   13.6815 C.3     1  UNL1        0.0019
     17 C          64.5718   88.1044   14.7221 C.3     1  UNL1        0.0001
     18 C          64.2718   86.6478   14.5263 C.3     1  UNL1        0.0019
     19 C          63.5571   86.1889   13.2900 C.3     1  UNL1        0.0226
     20 C          63.2322   84.1784   10.9871 C.ar    1  UNL1        0.0748
     21 C          62.8389   83.3519   12.1754 C.ar    1  UNL1        0.0468
     22 C          63.8863   82.2965   12.3730 C.ar    1  UNL1        0.1799
     23 O          64.9269   82.4707   11.3068 O.2     1  UNL1       -0.4472
     24 C          64.5226   83.6339   10.4502 C.ar    1  UNL1        0.1827
     25 C          58.2735   91.1553    5.2728 C.3     1  UNL1        0.1260
     26 C          57.6272   91.8395    4.1050 C.3     1  UNL1        0.0269
     27 C          56.1445   91.6391    4.2127 C.3     1  UNL1        0.0022
     28 C          55.8745   90.8309    5.4472 C.3     1  UNL1        0.0022
     29 C          57.1903   90.5319    6.1024 C.3     1  UNL1        0.0269
     30 N          59.4987   92.5933    3.4894 N.am    1  UNL1       -0.2826
     31 C          59.5474   91.6576    4.6606 C.2     1  UNL1        0.2419
     32 O          60.8701   91.2240    5.2198 O.2     1  UNL1       -0.2731
     33 H          58.6306   92.8778    3.1224 H       1  UNL1        0.1549
     34 C          63.3207   94.1002    1.6529 C.ar    1  UNL1        0.0001
     35 C          62.0753   94.9334    1.5828 C.ar    1  UNL1        0.0013
     36 C          60.8014   94.4311    2.1950 C.ar    1  UNL1        0.0147
     37 C          60.7727   93.0956    2.8772 C.ar    1  UNL1        0.0503
     38 C          62.0180   92.2623    2.9473 C.ar    1  UNL1        0.0147
     39 C          63.2920   92.7646    2.3351 C.ar    1  UNL1        0.0013
     40 C          64.5595   95.7388    0.0624 C.2     1  UNL1        0.0151
     41 C          64.5946   94.6024    1.0407 C.2     1  UNL1        0.0012
     42 O          66.8981   96.8409    0.3201 O.co2   1  UNL1       -0.5446
     43 C          65.8335   96.2411   -0.5498 C.2     1  UNL1        0.0729
     44 O          66.0428   96.1436   -2.0319 O.co2   1  UNL1       -0.5446
@<TRIPOS>UNITY_ATOM_ATTR
42 1
charge -1
@<TRIPOS>BOND
     1    42    43   ar
     2    43    44   ar
     3    43    40    1
     4    40    41    2
     5    41    34    1
     6    34    35   ar
     7    35    36   ar
     8    36    37   ar
     9    37    30    1
    10    30    31   am
    11    31    32    2
    12    31    25    1
    13    25     1    1
    14     1     2   am
    15     2     3    2
    16     2     5    1
    17     5     6   ar
    18     6     7   ar
    19     7     8   ar
    20     8     9   ar
    21     9    10   ar
    22     9    11   ar
    23    11    12   ar
    24    12    20    1
    25    20    21   ar
    26    21    22   ar
    27    22    23   ar
    28    23    24   ar
    29    12    13   ar
    30    13    14    1
    31    14    15    1
    32    15    16    1
    33    16    17    1
    34    17    18    1
    35    18    19    1
    36    25    26    1
    37    26    27    1
    38    27    28    1
    39    28    29    1
    40    37    38   ar
    41    38    39   ar
    42    39    34   ar
    43    29    25    1
    44    10     5   ar
    45    24    20   ar
    46    19    14    1
    47    13     8   ar
    48    30    33    1
    49     1     4    1
@<TRIPOS>MOLECULE
*****
 44 49 0 0 0
SMALL
GASTEIGER

@<TRIPOS>ATOM
      1 N          63.4781   86.6371   12.1098 N.am    1  UNL1       -0.2964
      2 C          62.8131   87.9406   12.4394 C.2     1  UNL1        0.2461
      3 O          61.3312   87.9902   12.6662 O.2     1  UNL1       -0.2701
      4 H          64.4508   86.6045   11.9610 H       1  UNL1        0.1501
      5 C          63.6300   89.1945   12.5423 C.ar    1  UNL1        0.0550
      6 C          63.4692   90.2803   11.5200 C.ar    1  UNL1        0.0061
      7 C          64.2861   91.5341   11.6228 C.ar    1  UNL1        0.0189
      8 C          65.2637   91.7021   12.7480 C.ar    1  UNL1        0.0788
      9 C          65.4245   90.6163   13.7703 C.ar    1  UNL1        0.0988
     10 C          64.6076   89.3625   13.6674 C.ar    1  UNL1        0.0251
     11 N          66.4595   91.0615   14.7605 N.ar    1  UNL1       -0.2267
     12 C          66.9384   92.4225   14.3502 C.ar    1  UNL1        0.1469
     13 N          66.1994   92.8184   13.1064 N.ar    1  UNL1       -0.3133
     14 C          66.3667   94.1048   12.3532 C.3     1  UNL1        0.0869
     15 C          66.1677   95.4158   13.0544 C.3     1  UNL1        0.0226
     16 C          66.3350   96.7021   12.3011 C.3     1  UNL1        0.0019
     17 C          66.7012   96.6774   10.8467 C.3     1  UNL1        0.0001
     18 C          66.9001   95.3664   10.1455 C.3     1  UNL1        0.0019
     19 C          66.7329   94.0801   10.8988 C.3     1  UNL1        0.0226
     20 C          67.9746   93.2434   15.0592 C.ar    1  UNL1        0.0748
     21 C          69.4592   93.0408   14.9894 C.ar    1  UNL1        0.0468
     22 C          70.1100   94.0833   15.8496 C.ar    1  UNL1        0.1799
     23 O          69.0277   94.9299   16.4509 O.2     1  UNL1       -0.4472
     24 C          67.7078   94.4108   15.9624 C.ar    1  UNL1        0.1827
     25 C          62.6612   85.3832   12.0070 C.3     1  UNL1        0.1260
     26 C          61.7268   84.2663   11.6478 C.3     1  UNL1        0.0269
     27 C          61.8829   83.1832   12.6738 C.3     1  UNL1        0.0022
     28 C          62.9138   83.6308   13.6671 C.3     1  UNL1        0.0022
     29 C          63.3949   84.9905   13.2550 C.3     1  UNL1        0.0269
     30 N          60.8719   86.8953   10.8839 N.am    1  UNL1       -0.2826
     31 C          62.0983   86.0380   10.7805 C.2     1  UNL1        0.2419
     32 O          62.7619   85.8355    9.4506 O.2     1  UNL1       -0.2731
     33 H          60.4364   87.0282   11.7568 H       1  UNL1        0.1549
     34 C          59.1831   88.8599    7.2043 C.ar    1  UNL1        0.0001
     35 C          58.9539   87.3973    7.4460 C.ar    1  UNL1        0.0013
     36 C          59.5168   86.7425    8.6725 C.ar    1  UNL1        0.0147
     37 C          60.3090   87.5502    9.6574 C.ar    1  UNL1        0.0503
     38 C          60.5382   89.0128    9.4158 C.ar    1  UNL1        0.0147
     39 C          59.9753   89.6676    8.1893 C.ar    1  UNL1        0.0013
     40 C          58.6557   91.0080    5.8416 C.2     1  UNL1        0.0151
     41 C          58.6202   89.5147    5.9779 C.2     1  UNL1        0.0012
     42 O          59.0133   92.2863    3.6083 O.co2   1  UNL1       -0.5446
     43 C          58.0928   91.6629    4.6152 C.2     1  UNL1        0.0729
     44 O          56.6093   91.6943    4.3956 O.co2   1  UNL1       -0.5446
@<TRIPOS>UNITY_ATOM_ATTR
42 1
charge -1
@<TRIPOS>BOND
     1    42    43   ar
     2    43    44   ar
     3    43    40    1
     4    40    41    2
     5    41    34    1
     6    34    35   ar
     7    35    36   ar
     8    36    37   ar
     9    37    30    1
    10    30    31   am
    11    31    32    2
    12    31    25    1
    13    25     1    1
    14     1     2   am
    15     2     3    2
    16     2     5    1
    17     5     6   ar
    18     6     7   ar
    19     7     8   ar
    20     8     9   ar
    21     9    10   ar
    22     9    11   ar
    23    11    12   ar
    24    12    20    1
    25    20    21   ar
    26    21    22   ar
    27    22    23   ar
    28    23    24   ar
    29    12    13   ar
    30    13    14    1
    31    14    15    1
    32    15    16    1
    33    16    17    1
    34    17    18    1
    35    18    19    1
    36    25    26    1
    37    26    27    1
    38    27    28    1
    39    28    29    1
    40    37    38   ar
    41    38    39   ar
    42    39    34   ar
    43    29    25    1
    44    10     5   ar
    45    24    20   ar
    46    19    14    1
    47    13     8   ar
    48    30    33    1
    49     1     4    1
