@<TRIPOS>MOLECULE
*****
 25 28 0 0 0
SMALL
GASTEIGER

@<TRIPOS>ATOM
      1 C          64.4908   89.8191   14.0388 C.ar    1  UNL1        0.1538
      2 C          64.3597   90.3218   12.6316 C.ar    1  UNL1        0.1053
      3 N          65.0361   91.6583   12.5519 N.ar    1  UNL1       -0.2873
      4 C          65.2230   92.6226   11.4182 C.ar    1  UNL1        0.0829
      5 C          65.9589   93.9102   11.6425 C.ar    1  UNL1        0.0353
      6 C          66.5080   94.2335   13.0004 C.ar    1  UNL1        0.0061
      7 C          66.3212   93.2692   14.1341 C.ar    1  UNL1        0.0375
      8 C          65.5852   91.9816   13.9098 C.ar    1  UNL1        0.1480
      9 N          65.2482   90.8449   14.8287 N.ar    1  UNL1       -0.2218
     10 C          66.1458   94.8746   10.5089 C.ar    1  UNL1        0.0828
     11 C          67.3961   94.8263    9.6815 C.ar    1  UNL1        0.0192
     12 C          67.5830   95.7906    8.5479 C.ar    1  UNL1        0.0031
     13 C          66.5196   96.8033    8.2416 C.ar    1  UNL1        0.0207
     14 C          65.2693   96.8516    9.0689 C.ar    1  UNL1        0.0988
     15 N          65.0824   95.8872   10.2026 N.ar    1  UNL1       -0.2438
     16 O          63.1812   88.4900   15.8466 O.2     1  UNL1       -0.2681
     17 C          63.9580   88.5190   14.5638 C.2     1  UNL1        0.2688
     18 N          64.2020   87.2477   13.8060 N.am    1  UNL1       -0.2791
     19 H          64.7118   87.2667   12.9640 H       1  UNL1        0.1552
     20 C          63.6692   85.9475   14.3310 C.ar    1  UNL1        0.0506
     21 C          63.6948   85.6667   15.8043 C.ar    1  UNL1        0.0147
     22 C          63.1620   84.3665   16.3294 C.ar    1  UNL1        0.0013
     23 C          62.6036   83.3472   15.3811 C.ar    1  UNL1        0.0001
     24 C          62.5780   83.6280   13.9079 C.ar    1  UNL1        0.0013
     25 C          63.1108   84.9282   13.3828 C.ar    1  UNL1        0.0147
@<TRIPOS>BOND
     1    16    17    2
     2    17    18   am
     3    18    20    1
     4    20    21   ar
     5    21    22   ar
     6    22    23   ar
     7    23    24   ar
     8    24    25   ar
     9    17     1    1
    10     1     2   ar
    11     2     3   ar
    12     3     4   ar
    13     4     5   ar
    14     5    10    1
    15    10    11   ar
    16    11    12   ar
    17    12    13   ar
    18    13    14   ar
    19    14    15   ar
    20     5     6   ar
    21     6     7   ar
    22     7     8   ar
    23     8     9   ar
    24    25    20   ar
    25     9     1   ar
    26     8     3   ar
    27    15    10   ar
    28    18    19    1
@<TRIPOS>MOLECULE
*****
 25 28 0 0 0
SMALL
GASTEIGER

@<TRIPOS>ATOM
      1 C          64.3337   88.8832   13.9153 C.ar    1  UNL1        0.1538
      2 C          64.4879   87.5313   14.5466 C.ar    1  UNL1        0.1053
      3 N          63.7460   86.5380   13.7022 N.ar    1  UNL1       -0.2873
      4 C          63.5493   85.0569   13.8344 C.ar    1  UNL1        0.0829
      5 C          62.7398   84.3138   12.8134 C.ar    1  UNL1        0.0353
      6 C          62.1271   85.0518   11.6602 C.ar    1  UNL1        0.0061
      7 C          62.3239   86.5329   11.5280 C.ar    1  UNL1        0.0375
      8 C          63.1333   87.2760   12.5490 C.ar    1  UNL1        0.1480
      9 N          63.4965   88.7254   12.6807 N.ar    1  UNL1       -0.2218
     10 C          62.5430   82.8326   12.9456 C.ar    1  UNL1        0.0828
     11 C          63.0172   81.9131   11.8595 C.ar    1  UNL1        0.0192
     12 C          62.8204   80.4320   11.9916 C.ar    1  UNL1        0.0031
     13 C          62.1494   79.8703   13.2099 C.ar    1  UNL1        0.0207
     14 C          61.6752   80.7897   14.2961 C.ar    1  UNL1        0.0988
     15 N          61.8720   82.2709   14.1639 N.ar    1  UNL1       -0.2438
     16 O          64.0721   91.0953   15.2525 O.2     1  UNL1       -0.2681
     17 C          64.9146   90.1674   14.4285 C.2     1  UNL1        0.2688
     18 N          66.3381   90.5237   14.1176 N.am    1  UNL1       -0.2791
     19 H          66.8912   89.9147   13.5768 H       1  UNL1        0.1552
     20 C          66.9191   91.8079   14.6308 C.ar    1  UNL1        0.0506
     21 C          66.4987   93.1152   14.0273 C.ar    1  UNL1        0.0147
     22 C          67.0796   94.3994   14.5405 C.ar    1  UNL1        0.0013
     23 C          68.0810   94.3763   15.6571 C.ar    1  UNL1        0.0001
     24 C          68.5014   93.0689   16.2605 C.ar    1  UNL1        0.0013
     25 C          67.9205   91.7847   15.7473 C.ar    1  UNL1        0.0147
@<TRIPOS>BOND
     1    16    17    2
     2    17    18   am
     3    18    20    1
     4    20    21   ar
     5    21    22   ar
     6    22    23   ar
     7    23    24   ar
     8    24    25   ar
     9    17     1    1
    10     1     2   ar
    11     2     3   ar
    12     3     4   ar
    13     4     5   ar
    14     5    10    1
    15    10    11   ar
    16    11    12   ar
    17    12    13   ar
    18    13    14   ar
    19    14    15   ar
    20     5     6   ar
    21     6     7   ar
    22     7     8   ar
    23     8     9   ar
    24    25    20   ar
    25     9     1   ar
    26     8     3   ar
    27    15    10   ar
    28    18    19    1
@<TRIPOS>MOLECULE
*****
 25 28 0 0 0
SMALL
GASTEIGER

@<TRIPOS>ATOM
      1 C          64.1492   89.2780   13.4728 C.ar    1  UNL1        0.1538
      2 C          63.5703   88.1923   12.6149 C.ar    1  UNL1        0.1053
      3 N          63.6087   86.9131   13.3973 N.ar    1  UNL1       -0.2873
      4 C          63.1728   85.5177   13.0616 C.ar    1  UNL1        0.0829
      5 C          63.3395   84.4174   14.0673 C.ar    1  UNL1        0.0353
      6 C          63.9421   84.7126   15.4088 C.ar    1  UNL1        0.0061
      7 C          64.3781   86.1080   15.7446 C.ar    1  UNL1        0.0375
      8 C          64.2114   87.2082   14.7389 C.ar    1  UNL1        0.1480
      9 N          64.5454   88.6698   14.7855 N.ar    1  UNL1       -0.2218
     10 C          62.9035   83.0220   13.7315 C.ar    1  UNL1        0.0828
     11 C          63.5309   82.2974   12.5777 C.ar    1  UNL1        0.0192
     12 C          63.0950   80.9020   12.2419 C.ar    1  UNL1        0.0031
     13 C          62.0317   80.2311   13.0600 C.ar    1  UNL1        0.0207
     14 C          61.4043   80.9556   14.2139 C.ar    1  UNL1        0.0988
     15 N          61.8402   82.3511   14.5497 N.ar    1  UNL1       -0.2438
     16 O          63.1123   91.6289   13.0883 O.2     1  UNL1       -0.2681
     17 C          64.3047   90.7189   13.0860 C.2     1  UNL1        0.2688
     18 N          65.6525   91.2498   12.6969 N.am    1  UNL1       -0.2791
     19 H          66.4352   90.6526   12.6954 H       1  UNL1        0.1552
     20 C          65.8080   92.6907   12.3101 C.ar    1  UNL1        0.0506
     21 C          65.4436   93.1392   10.9258 C.ar    1  UNL1        0.0147
     22 C          65.5990   94.5801   10.5390 C.ar    1  UNL1        0.0013
     23 C          66.1188   95.5725   11.5365 C.ar    1  UNL1        0.0001
     24 C          66.4832   95.1241   12.9207 C.ar    1  UNL1        0.0013
     25 C          66.3278   93.6832   13.3075 C.ar    1  UNL1        0.0147
@<TRIPOS>BOND
     1    16    17    2
     2    17    18   am
     3    18    20    1
     4    20    21   ar
     5    21    22   ar
     6    22    23   ar
     7    23    24   ar
     8    24    25   ar
     9    17     1    1
    10     1     2   ar
    11     2     3   ar
    12     3     4   ar
    13     4     5   ar
    14     5    10    1
    15    10    11   ar
    16    11    12   ar
    17    12    13   ar
    18    13    14   ar
    19    14    15   ar
    20     5     6   ar
    21     6     7   ar
    22     7     8   ar
    23     8     9   ar
    24    25    20   ar
    25     9     1   ar
    26     8     3   ar
    27    15    10   ar
    28    18    19    1
@<TRIPOS>MOLECULE
*****
 25 28 0 0 0
SMALL
GASTEIGER

@<TRIPOS>ATOM
      1 C          63.5675   89.6286   12.1642 C.ar    1  UNL1        0.1538
      2 C          63.9404   88.4642   13.0331 C.ar    1  UNL1        0.1053
      3 N          63.2646   87.2421   12.4856 N.ar    1  UNL1       -0.2873
      4 C          63.2670   85.8096   12.9304 C.ar    1  UNL1        0.0829
      5 C          62.4788   84.7862   12.1679 C.ar    1  UNL1        0.0353
      6 C          61.6882   85.1953   10.9606 C.ar    1  UNL1        0.0061
      7 C          61.6858   86.6278   10.5158 C.ar    1  UNL1        0.0375
      8 C          62.4740   87.6512   11.2783 C.ar    1  UNL1        0.1480
      9 N          62.6612   89.1262   11.0797 N.ar    1  UNL1       -0.2218
     10 C          62.4812   83.3536   12.6127 C.ar    1  UNL1        0.0828
     11 C          62.8496   82.2684   11.6449 C.ar    1  UNL1        0.0192
     12 C          62.8520   80.8359   12.0897 C.ar    1  UNL1        0.0031
     13 C          62.4859   80.4885   13.5023 C.ar    1  UNL1        0.0207
     14 C          62.1175   81.5737   14.4701 C.ar    1  UNL1        0.0988
     15 N          62.1151   83.0063   14.0253 N.ar    1  UNL1       -0.2438
     16 O          63.5105   91.8538   13.5040 O.2     1  UNL1       -0.2681
     17 C          64.0212   91.0466   12.3476 C.2     1  UNL1        0.2688
     18 N          64.9856   91.6572   11.3745 N.am    1  UNL1       -0.2791
     19 H          65.3209   91.1274   10.6155 H       1  UNL1        0.1552
     20 C          65.4393   93.0752   11.5579 C.ar    1  UNL1        0.0506
     21 C          65.2515   94.0717   10.4525 C.ar    1  UNL1        0.0147
     22 C          65.7052   95.4896   10.6359 C.ar    1  UNL1        0.0013
     23 C          66.3468   95.9110   11.9247 C.ar    1  UNL1        0.0001
     24 C          66.5346   94.9145   13.0300 C.ar    1  UNL1        0.0013
     25 C          66.0809   93.4966   12.8466 C.ar    1  UNL1        0.0147
@<TRIPOS>BOND
     1    16    17    2
     2    17    18   am
     3    18    20    1
     4    20    21   ar
     5    21    22   ar
     6    22    23   ar
     7    23    24   ar
     8    24    25   ar
     9    17     1    1
    10     1     2   ar
    11     2     3   ar
    12     3     4   ar
    13     4     5   ar
    14     5    10    1
    15    10    11   ar
    16    11    12   ar
    17    12    13   ar
    18    13    14   ar
    19    14    15   ar
    20     5     6   ar
    21     6     7   ar
    22     7     8   ar
    23     8     9   ar
    24    25    20   ar
    25     9     1   ar
    26     8     3   ar
    27    15    10   ar
    28    18    19    1
@<TRIPOS>MOLECULE
*****
 25 28 0 0 0
SMALL
GASTEIGER

@<TRIPOS>ATOM
      1 C          61.0203   93.0971    2.3302 C.ar    1  UNL1        0.1538
      2 C          61.6991   92.1282    3.2524 C.ar    1  UNL1        0.1053
      3 N          60.6635   91.5714    4.1837 N.ar    1  UNL1       -0.2873
      4 C          60.7510   90.5762    5.3026 C.ar    1  UNL1        0.0829
      5 C          59.5196   90.2059    6.0749 C.ar    1  UNL1        0.0353
      6 C          58.2007   90.8307    5.7283 C.ar    1  UNL1        0.0061
      7 C          58.1132   91.8259    4.6095 C.ar    1  UNL1        0.0375
      8 C          59.3446   92.1963    3.8372 C.ar    1  UNL1        0.1480
      9 N          59.5651   93.1392    2.6916 N.ar    1  UNL1       -0.2218
     10 C          59.6070   89.2106    7.1938 C.ar    1  UNL1        0.0828
     11 C          59.0742   87.8212    7.0051 C.ar    1  UNL1        0.0192
     12 C          59.1616   86.8260    8.1239 C.ar    1  UNL1        0.0031
     13 C          59.7820   87.2202    9.4316 C.ar    1  UNL1        0.0207
     14 C          60.3148   88.6096    9.6203 C.ar    1  UNL1        0.0988
     15 N          60.2273   89.6048    8.5014 N.ar    1  UNL1       -0.2438
     16 O          60.9625   95.0420    0.6085 O.2     1  UNL1       -0.2681
     17 C          61.6808   93.8855    1.2383 C.2     1  UNL1        0.2688
     18 N          63.0595   93.5175    0.7761 N.am    1  UNL1       -0.2791
     19 H          63.5309   92.7585    1.1895 H       1  UNL1        0.1552
     20 C          63.7199   94.3059   -0.3157 C.ar    1  UNL1        0.0506
     21 C          64.6533   95.4285    0.0290 C.ar    1  UNL1        0.0147
     22 C          65.3137   96.2169   -1.0629 C.ar    1  UNL1        0.0013
     23 C          65.0408   95.8827   -2.4995 C.ar    1  UNL1        0.0001
     24 C          64.1075   94.7602   -2.8442 C.ar    1  UNL1        0.0013
     25 C          63.4471   93.9718   -1.7524 C.ar    1  UNL1        0.0147
@<TRIPOS>BOND
     1    16    17    2
     2    17    18   am
     3    18    20    1
     4    20    21   ar
     5    21    22   ar
     6    22    23   ar
     7    23    24   ar
     8    24    25   ar
     9    17     1    1
    10     1     2   ar
    11     2     3   ar
    12     3     4   ar
    13     4     5   ar
    14     5    10    1
    15    10    11   ar
    16    11    12   ar
    17    12    13   ar
    18    13    14   ar
    19    14    15   ar
    20     5     6   ar
    21     6     7   ar
    22     7     8   ar
    23     8     9   ar
    24    25    20   ar
    25     9     1   ar
    26     8     3   ar
    27    15    10   ar
    28    18    19    1
@<TRIPOS>MOLECULE
*****
 25 28 0 0 0
SMALL
GASTEIGER

@<TRIPOS>ATOM
      1 C          63.5038   85.9448   14.9645 C.ar    1  UNL1        0.1538
      2 C          64.2027   86.7646   13.9208 C.ar    1  UNL1        0.1053
      3 N          64.2533   88.1840   14.4034 N.ar    1  UNL1       -0.2873
      4 C          64.8211   89.4315   13.7942 C.ar    1  UNL1        0.0829
      5 C          64.7213   90.7365   14.5270 C.ar    1  UNL1        0.0353
      6 C          64.0537   90.7939   15.8690 C.ar    1  UNL1        0.0061
      7 C          63.4860   89.5463   16.4782 C.ar    1  UNL1        0.0375
      8 C          63.5858   88.2413   15.7454 C.ar    1  UNL1        0.1480
      9 N          63.1225   86.8575   16.0922 N.ar    1  UNL1       -0.2218
     10 C          65.2891   91.9841   13.9178 C.ar    1  UNL1        0.0828
     11 C          65.0811   92.2686   12.4598 C.ar    1  UNL1        0.0192
     12 C          65.6488   93.5162   11.8506 C.ar    1  UNL1        0.0031
     13 C          66.4246   94.4794   12.6994 C.ar    1  UNL1        0.0207
     14 C          66.6327   94.1949   14.1574 C.ar    1  UNL1        0.0988
     15 N          66.0649   92.9472   14.7666 N.ar    1  UNL1       -0.2438
     16 O          63.5522   83.5924   16.0663 O.2     1  UNL1       -0.2681
     17 C          63.2336   84.4710   14.8931 C.2     1  UNL1        0.2688
     18 N          62.6447   83.8759   13.6486 N.am    1  UNL1       -0.2791
     19 H          62.4355   84.4526   12.8785 H       1  UNL1        0.1552
     20 C          62.3745   82.4022   13.5772 C.ar    1  UNL1        0.0506
     21 C          61.2136   81.8154   14.3243 C.ar    1  UNL1        0.0147
     22 C          60.9434   80.3417   14.2529 C.ar    1  UNL1        0.0013
     23 C          61.8341   79.4547   13.4344 C.ar    1  UNL1        0.0001
     24 C          62.9950   80.0414   12.6873 C.ar    1  UNL1        0.0013
     25 C          63.2651   81.5152   12.7587 C.ar    1  UNL1        0.0147
@<TRIPOS>BOND
     1    16    17    2
     2    17    18   am
     3    18    20    1
     4    20    21   ar
     5    21    22   ar
     6    22    23   ar
     7    23    24   ar
     8    24    25   ar
     9    17     1    1
    10     1     2   ar
    11     2     3   ar
    12     3     4   ar
    13     4     5   ar
    14     5    10    1
    15    10    11   ar
    16    11    12   ar
    17    12    13   ar
    18    13    14   ar
    19    14    15   ar
    20     5     6   ar
    21     6     7   ar
    22     7     8   ar
    23     8     9   ar
    24    25    20   ar
    25     9     1   ar
    26     8     3   ar
    27    15    10   ar
    28    18    19    1
@<TRIPOS>MOLECULE
*****
 25 28 0 0 0
SMALL
GASTEIGER

@<TRIPOS>ATOM
      1 C          63.0385   86.4197   12.6593 C.ar    1  UNL1        0.1538
      2 C          64.0750   86.9592   13.5998 C.ar    1  UNL1        0.1053
      3 N          64.1844   88.4375   13.3707 N.ar    1  UNL1       -0.2873
      4 C          65.0411   89.4912   14.0077 C.ar    1  UNL1        0.0829
      5 C          64.9288   90.9192   13.5624 C.ar    1  UNL1        0.0353
      6 C          63.9599   91.2935   12.4802 C.ar    1  UNL1        0.0061
      7 C          63.1033   90.2398   11.8433 C.ar    1  UNL1        0.0375
      8 C          63.2155   88.8118   12.2885 C.ar    1  UNL1        0.1480
      9 N          62.5073   87.5647   11.8488 N.ar    1  UNL1       -0.2218
     10 C          65.7856   91.9730   14.1994 C.ar    1  UNL1        0.0828
     11 C          66.4401   91.7085   15.5228 C.ar    1  UNL1        0.0192
     12 C          67.2968   92.7622   16.1598 C.ar    1  UNL1        0.0031
     13 C          67.4989   94.0805   15.4733 C.ar    1  UNL1        0.0207
     14 C          66.8443   94.3451   14.1499 C.ar    1  UNL1        0.0988
     15 N          65.9876   93.2913   13.5129 N.ar    1  UNL1       -0.2438
     16 O          61.7472   84.5488   11.4015 O.2     1  UNL1       -0.2681
     17 C          62.6087   84.9869   12.5486 C.2     1  UNL1        0.2688
     18 N          63.0403   83.9922   13.5850 N.am    1  UNL1       -0.2791
     19 H          63.6058   84.2797   14.3379 H       1  UNL1        0.1552
     20 C          62.6105   82.5594   13.4743 C.ar    1  UNL1        0.0506
     21 C          63.2832   81.6484   12.4905 C.ar    1  UNL1        0.0147
     22 C          62.8534   80.2156   12.3799 C.ar    1  UNL1        0.0013
     23 C          61.7509   79.6937   13.2529 C.ar    1  UNL1        0.0001
     24 C          61.0782   80.6046   14.2366 C.ar    1  UNL1        0.0013
     25 C          61.5081   82.0375   14.3473 C.ar    1  UNL1        0.0147
@<TRIPOS>BOND
     1    16    17    2
     2    17    18   am
     3    18    20    1
     4    20    21   ar
     5    21    22   ar
     6    22    23   ar
     7    23    24   ar
     8    24    25   ar
     9    17     1    1
    10     1     2   ar
    11     2     3   ar
    12     3     4   ar
    13     4     5   ar
    14     5    10    1
    15    10    11   ar
    16    11    12   ar
    17    12    13   ar
    18    13    14   ar
    19    14    15   ar
    20     5     6   ar
    21     6     7   ar
    22     7     8   ar
    23     8     9   ar
    24    25    20   ar
    25     9     1   ar
    26     8     3   ar
    27    15    10   ar
    28    18    19    1
@<TRIPOS>MOLECULE
*****
 25 28 0 0 0
SMALL
GASTEIGER

@<TRIPOS>ATOM
      1 C          62.8493   86.5584   12.7014 C.ar    1  UNL1        0.1538
      2 C          63.8351   87.4912   13.3401 C.ar    1  UNL1        0.1053
      3 N          63.7813   88.7973   12.6045 N.ar    1  UNL1       -0.2873
      4 C          64.5286   90.0847   12.7890 C.ar    1  UNL1        0.0829
      5 C          64.2568   91.2465   11.8800 C.ar    1  UNL1        0.0353
      6 C          63.2378   91.1209   10.7865 C.ar    1  UNL1        0.0061
      7 C          62.4905   89.8335   10.6020 C.ar    1  UNL1        0.0375
      8 C          62.7622   88.6717   11.5110 C.ar    1  UNL1        0.1480
      9 N          62.1862   87.2880   11.5709 N.ar    1  UNL1       -0.2218
     10 C          65.0042   92.5340   12.0645 C.ar    1  UNL1        0.0828
     11 C          65.1571   93.4839   10.9138 C.ar    1  UNL1        0.0192
     12 C          65.9043   94.7714   11.0982 C.ar    1  UNL1        0.0031
     13 C          66.4987   95.1089   12.4335 C.ar    1  UNL1        0.0207
     14 C          66.3458   94.1590   13.5842 C.ar    1  UNL1        0.0988
     15 N          65.5985   92.8715   13.3997 N.ar    1  UNL1       -0.2438
     16 O          61.9886   84.8623   14.4712 O.2     1  UNL1       -0.2681
     17 C          62.5747   85.1443   13.1196 C.2     1  UNL1        0.2688
     18 N          62.8864   84.0122   12.1863 N.am    1  UNL1       -0.2791
     19 H          63.2711   84.1972   11.2992 H       1  UNL1        0.1552
     20 C          62.6118   82.5981   12.6046 C.ar    1  UNL1        0.0506
     21 C          61.9559   82.3203   13.9247 C.ar    1  UNL1        0.0147
     22 C          61.6814   80.9062   14.3430 C.ar    1  UNL1        0.0013
     23 C          62.0627   79.7699   13.4411 C.ar    1  UNL1        0.0001
     24 C          62.7186   80.0476   12.1210 C.ar    1  UNL1        0.0013
     25 C          62.9931   81.4617   11.7028 C.ar    1  UNL1        0.0147
@<TRIPOS>BOND
     1    16    17    2
     2    17    18   am
     3    18    20    1
     4    20    21   ar
     5    21    22   ar
     6    22    23   ar
     7    23    24   ar
     8    24    25   ar
     9    17     1    1
    10     1     2   ar
    11     2     3   ar
    12     3     4   ar
    13     4     5   ar
    14     5    10    1
    15    10    11   ar
    16    11    12   ar
    17    12    13   ar
    18    13    14   ar
    19    14    15   ar
    20     5     6   ar
    21     6     7   ar
    22     7     8   ar
    23     8     9   ar
    24    25    20   ar
    25     9     1   ar
    26     8     3   ar
    27    15    10   ar
    28    18    19    1
@<TRIPOS>MOLECULE
*****
 25 28 0 0 0
SMALL
GASTEIGER

@<TRIPOS>ATOM
      1 C          60.8515   88.3240    9.5292 C.ar    1  UNL1        0.1538
      2 C          60.6368   86.8395    9.5266 C.ar    1  UNL1        0.1053
      3 N          61.4858   86.2464   10.6117 N.ar    1  UNL1       -0.2873
      4 C          61.6811   84.8328   11.0738 C.ar    1  UNL1        0.0829
      5 C          62.6159   84.5372   12.2090 C.ar    1  UNL1        0.0353
      6 C          63.3553   85.6553   12.8823 C.ar    1  UNL1        0.0061
      7 C          63.1600   87.0689   12.4202 C.ar    1  UNL1        0.0375
      8 C          62.2252   87.3645   11.2850 C.ar    1  UNL1        0.1480
      9 N          61.8332   88.6485   10.6159 N.ar    1  UNL1       -0.2218
     10 C          62.8112   83.1236   12.6711 C.ar    1  UNL1        0.0828
     11 C          62.7576   81.9971   11.6821 C.ar    1  UNL1        0.0192
     12 C          62.9529   80.5835   12.1441 C.ar    1  UNL1        0.0031
     13 C          63.2019   80.2963   13.5952 C.ar    1  UNL1        0.0207
     14 C          63.2556   81.4228   14.5842 C.ar    1  UNL1        0.0988
     15 N          63.0602   82.8365   14.1221 N.ar    1  UNL1       -0.2438
     16 O          59.6969   90.6190    9.1421 O.2     1  UNL1       -0.2681
     17 C          60.1990   89.3108    8.6070 C.2     1  UNL1        0.2688
     18 N          60.0487   88.9895    7.1495 N.am    1  UNL1       -0.2791
     19 H          60.3783   88.1309    6.7983 H       1  UNL1        0.1552
     20 C          59.3963   89.9763    6.2273 C.ar    1  UNL1        0.0506
     21 C          60.2398   90.8915    5.3899 C.ar    1  UNL1        0.0147
     22 C          59.5873   91.8783    4.4677 C.ar    1  UNL1        0.0013
     23 C          58.0914   91.9500    4.3829 C.ar    1  UNL1        0.0001
     24 C          57.2480   91.0349    5.2202 C.ar    1  UNL1        0.0013
     25 C          57.9004   90.0480    6.1425 C.ar    1  UNL1        0.0147
@<TRIPOS>BOND
     1    16    17    2
     2    17    18   am
     3    18    20    1
     4    20    21   ar
     5    21    22   ar
     6    22    23   ar
     7    23    24   ar
     8    24    25   ar
     9    17     1    1
    10     1     2   ar
    11     2     3   ar
    12     3     4   ar
    13     4     5   ar
    14     5    10    1
    15    10    11   ar
    16    11    12   ar
    17    12    13   ar
    18    13    14   ar
    19    14    15   ar
    20     5     6   ar
    21     6     7   ar
    22     7     8   ar
    23     8     9   ar
    24    25    20   ar
    25     9     1   ar
    26     8     3   ar
    27    15    10   ar
    28    18    19    1
