@<TRIPOS>MOLECULE
*****
 49 55 0 0 0
SMALL
GASTEIGER

@<TRIPOS>ATOM
      1 C          59.8294   89.4729    6.9894 C.3     1  UNL1        0.1445
      2 C          58.5166   90.0744    6.5834 C.3     1  UNL1        0.0322
      3 C          58.4477   90.9978    5.4032 C.3     1  UNL1        0.0049
      4 C          57.1349   91.5992    4.9973 C.3     1  UNL1        0.0002
      5 C          59.6916   91.3195    4.6291 C.3     1  UNL1        0.0298
      6 C          61.0044   90.7180    5.0351 C.3     1  UNL1        0.1418
      7 O          61.0733   89.7947    6.2153 O.3     1  UNL1       -0.3537
      8 C          62.0552   91.2158    4.0875 C.3     1  UNL1        0.1373
      9 O          63.5133   90.8659    4.1250 O.3     1  UNL1       -0.3820
     10 C          61.3919   92.1250    3.0959 C.3     1  UNL1        0.0272
     11 C          62.8679   91.9635    2.8833 C.3     1  UNL1        0.0025
     12 C          61.9293   92.9028    1.9313 C.3     1  UNL1        0.0023
     13 C          63.3901   92.8387    1.5966 C.3     1  UNL1        0.0001
     14 C          63.9275   93.6165    0.4320 C.3     1  UNL1        0.0001
     15 C          63.0042   94.4584   -0.3978 C.3     1  UNL1        0.0023
     16 C          63.5416   95.2362   -1.5623 C.3     1  UNL1        0.0251
     17 C          64.5174   95.7882   -2.5589 C.3     1  UNL1        0.0024
     18 C          64.8038   94.5860   -1.0786 C.3     1  UNL1        0.0024
     19 C          62.6182   96.0782   -2.3922 C.3     1  UNL1        0.1177
     20 C          61.1575   96.1423   -2.0574 C.3     1  UNL1        0.0296
     21 C          60.6200   95.3645   -0.8929 C.3     1  UNL1        0.0025
     22 C          61.5433   94.5226   -0.0631 C.3     1  UNL1        0.0002
     23 C          60.0826   94.5866    0.2717 C.3     1  UNL1        0.0000
     24 C          61.0059   93.7447    1.1015 C.3     1  UNL1        0.0001
     25 C          59.5452   93.8088    1.4362 C.3     1  UNL1        0.0000
     26 C          59.0078   93.0310    2.6008 C.3     1  UNL1        0.0002
     27 C          59.9311   92.1891    3.4306 C.3     1  UNL1        0.0046
     28 C          58.5016   92.1551    3.8839 C.3     1  UNL1        0.0002
     29 H          63.9736   91.3206    3.4023 H       1  UNL1        0.2104
     30 C          59.8983   88.5495    8.1695 C.3     1  UNL1        0.1664
     31 C          60.0550   87.0728    7.9583 C.3     1  UNL1        0.1156
     32 C          61.4505   87.1428    8.5041 C.3     1  UNL1        0.0319
     33 C          58.6596   87.0027    7.4125 C.3     1  UNL1        0.0319
     34 O          60.2118   85.5960    7.7470 O.3     1  UNL1       -0.3843
     35 H          61.0963   85.3204    8.0342 H       1  UNL1        0.2103
     36 O          59.8104   89.1030    9.5609 O.3     1  UNL1       -0.3514
     37 C          62.0096   90.1879   10.4190 C.3     1  UNL1        0.0346
     38 C          60.5971   90.3247    9.9331 C.3     1  UNL1        0.1423
     39 O          63.1556   96.8560   -3.5567 O.3     1  UNL1       -0.3320
     40 C          62.4761   96.7736   -4.8914 C.3     1  UNL1        0.2518
     41 C          60.9808   96.8557   -4.9781 C.3     1  UNL1        0.1343
     42 N          60.3013   96.7733   -6.3128 N.3     1  UNL1       -0.2642
     43 C          61.1170   96.6087   -7.5608 C.3     1  UNL1        0.1048
     44 C          62.6122   96.5265   -7.4742 C.3     1  UNL1        0.1621
     45 O          63.2918   96.6089   -6.1394 O.3     1  UNL1       -0.3280
     46 C          58.8061   96.8555   -6.3995 C.3     1  UNL1        0.1047
     47 C          57.9574   95.8250   -5.7155 C.3     1  UNL1        0.1595
     48 O          57.3570   94.7018   -6.5079 O.3     1  UNL1       -0.3496
     49 C          58.0644   93.3818   -6.5925 C.3     1  UNL1        0.1742
@<TRIPOS>BOND
     1    37    38    1
     2    38    36    1
     3    30    36    1
     4    30     1    1
     5     1     2    1
     6     2     3    1
     7     3     4    1
     8     5     3    1
     9     5     6    1
    10     6     7    1
    11     6     8    1
    12     8     9    1
    13     8    10    1
    14    10    11    1
    15    10    12    1
    16    12    13    1
    17    13    14    1
    18    15    14    1
    19    15    16    1
    20    16    17    1
    21    16    18    1
    22    16    19    1
    23    19    39    1
    24    40    39    1
    25    40    41    1
    26    41    42    1
    27    42    46    1
    28    46    47    1
    29    47    48    1
    30    48    49    1
    31    42    43    1
    32    43    44    1
    33    44    45    1
    34    19    20    1
    35    20    21    1
    36    22    21    1
    37    22    23    1
    38    24    23    1
    39    24    25    1
    40    25    26    1
    41    26    27    1
    42    27    28    1
    43    30    31    1
    44    31    32    1
    45    31    33    1
    46    31    34    1
    47     7     1    1
    48    27    10    1
    49    27     5    1
    50    24    12    1
    51    22    15    1
    52    45    40    1
    53    24    22    1
    54     9    29    1
    55    34    35    1
