@<TRIPOS>MOLECULE
*****
 32 35 0 0 0
SMALL
GASTEIGER

@<TRIPOS>ATOM
      1 C          63.5564   89.2736   13.9988 C.2     1  UNL1        0.2320
      2 O          64.2453   88.0085   14.4171 O.2     1  UNL1       -0.2744
      3 N          62.7232   89.2968   12.7518 N.am    1  UNL1       -0.2639
      4 H          62.2711   90.1271   12.4772 H       1  UNL1        0.1567
      5 C          62.5788   88.0550   11.9230 C.ar    1  UNL1        0.1655
      6 N          63.0888   86.6909   12.2823 N.ar    1  UNL1       -0.2239
      7 C          62.7243   85.7520   11.1708 C.ar    1  UNL1        0.0913
      8 C          61.9890   86.5358   10.1244 C.ar    1  UNL1        0.0573
      9 S          61.8991   87.9591   10.5893 S.2     1  UNL1       -0.0508
     10 C          63.0396   84.2866   11.1153 C.ar    1  UNL1        0.0403
     11 C          63.6503   83.5595    9.9541 C.ar    1  UNL1        0.1021
     12 N          63.7877   82.1145   10.3325 N.ar    1  UNL1       -0.2269
     13 C          63.2621   81.9486   11.7275 C.ar    1  UNL1        0.1406
     14 N          63.1447   80.7485   12.6198 N.ar    1  UNL1       -0.3374
     15 C          62.5650   80.8909   13.9958 C.ar    1  UNL1        0.0735
     16 C          62.1026   82.2334   14.4796 C.ar    1  UNL1        0.0186
     17 C          62.2200   83.4334   13.5874 C.ar    1  UNL1        0.0046
     18 C          62.7997   83.2910   12.2114 C.ar    1  UNL1        0.0370
     19 H          63.4482   79.8675   12.3022 H       1  UNL1        0.1674
     20 C          63.7008   90.5155   14.8276 C.3     1  UNL1        0.1117
     21 C          66.5116   92.6459   13.0080 C.ar    1  UNL1        0.1219
     22 C          67.2143   93.2530   14.1860 C.ar    1  UNL1        0.0199
     23 C          66.7459   92.9475   15.5779 C.ar    1  UNL1        0.0011
     24 C          65.5747   92.0350   15.7918 C.ar    1  UNL1       -0.0037
     25 C          64.8719   91.4279   14.6137 C.ar    1  UNL1       -0.0117
     26 C          65.3404   91.7334   13.2218 C.ar    1  UNL1        0.0161
     27 S          66.9800   92.9514   11.6162 S.O2    1  UNL1        0.0634
     28 O          65.7935   93.8464   11.4133 O.2     1  UNL1       -0.1528
     29 O          68.1665   92.0563   11.8190 O.2     1  UNL1       -0.1528
     30 C          67.0124   94.5221    9.5469 C.3     1  UNL1        0.1150
     31 N          67.4484   93.2568   10.2243 N.3     1  UNL1       -0.1526
     32 C          68.3528   92.2968    9.5097 C.3     1  UNL1        0.1150
@<TRIPOS>BOND
     1    30    31    1
     2    31    32    1
     3    31    27    1
     4    27    28    2
     5    27    29    2
     6    27    21    1
     7    21    22   ar
     8    22    23   ar
     9    23    24   ar
    10    24    25   ar
    11    25    20    1
    12    20     1    1
    13     1     2    2
    14     1     3   am
    15     3     5    1
    16     5     6   ar
    17     6     7   ar
    18     7    10    1
    19    10    11   ar
    20    11    12   ar
    21    12    13   ar
    22    13    14   ar
    23    14    15   ar
    24    15    16   ar
    25    16    17   ar
    26    17    18   ar
    27     7     8   ar
    28     8     9   ar
    29    25    26   ar
    30    26    21   ar
    31     9     5   ar
    32    18    10   ar
    33    18    13    1
    34     3     4    1
    35    14    19    1
@<TRIPOS>MOLECULE
*****
 32 35 0 0 0
SMALL
GASTEIGER

@<TRIPOS>ATOM
      1 C          64.3224   85.9154   15.3863 C.2     1  UNL1        0.2320
      2 O          65.7404   86.3187   15.1092 O.2     1  UNL1       -0.2744
      3 N          63.2858   86.9627   15.6663 N.am    1  UNL1       -0.2639
      4 H          62.3552   86.6980   15.8482 H       1  UNL1        0.1567
      5 C          63.6671   88.4134   15.6693 C.ar    1  UNL1        0.1655
      6 N          64.6910   89.0578   14.7825 N.ar    1  UNL1       -0.2239
      7 C          64.7481   90.5171   15.1247 C.ar    1  UNL1        0.0913
      8 C          63.7596   90.7747   16.2231 C.ar    1  UNL1        0.0573
      9 S          63.0915   89.4746   16.5597 S.2     1  UNL1       -0.0508
     10 C          65.6377   91.5394   14.4815 C.ar    1  UNL1        0.0403
     11 C          66.7877   92.2449   15.1370 C.ar    1  UNL1        0.1021
     12 N          67.3940   93.1771   14.1305 N.ar    1  UNL1       -0.2269
     13 C          66.6188   93.0478   12.8528 C.ar    1  UNL1        0.1406
     14 N          66.7611   93.7210   11.5200 N.ar    1  UNL1       -0.3374
     15 C          65.8179   93.3819   10.4041 C.ar    1  UNL1        0.0735
     16 C          64.7323   92.3697   10.6210 C.ar    1  UNL1        0.0186
     17 C          64.5901   91.6966   11.9539 C.ar    1  UNL1        0.0046
     18 C          65.5333   92.0356   13.0698 C.ar    1  UNL1        0.0370
     19 H          67.4736   94.3853   11.3776 H       1  UNL1        0.1674
     20 C          63.9411   84.4646   15.3833 C.3     1  UNL1        0.1117
     21 C          62.8936   83.9536   11.5897 C.ar    1  UNL1        0.1219
     22 C          62.7353   82.4629   11.5377 C.ar    1  UNL1        0.0199
     23 C          62.9789   81.6394   12.7675 C.ar    1  UNL1        0.0011
     24 C          63.3808   82.3067   14.0495 C.ar    1  UNL1       -0.0037
     25 C          63.5392   83.7974   14.1014 C.ar    1  UNL1       -0.0117
     26 C          63.2956   84.6209   12.8715 C.ar    1  UNL1        0.0161
     27 S          62.6500   84.7771   10.3598 S.O2    1  UNL1        0.0634
     28 O          61.6546   85.6083   11.1136 O.2     1  UNL1       -0.1528
     29 O          63.6454   83.9458    9.6061 O.2     1  UNL1       -0.1528
     30 C          61.7549   86.9467    9.2456 C.3     1  UNL1        0.1150
     31 N          62.4064   85.6006    9.1300 N.3     1  UNL1       -0.1526
     32 C          62.8145   85.0779    7.7844 C.3     1  UNL1        0.1150
@<TRIPOS>BOND
     1    30    31    1
     2    31    32    1
     3    31    27    1
     4    27    28    2
     5    27    29    2
     6    27    21    1
     7    21    22   ar
     8    22    23   ar
     9    23    24   ar
    10    24    25   ar
    11    25    20    1
    12    20     1    1
    13     1     2    2
    14     1     3   am
    15     3     5    1
    16     5     6   ar
    17     6     7   ar
    18     7    10    1
    19    10    11   ar
    20    11    12   ar
    21    12    13   ar
    22    13    14   ar
    23    14    15   ar
    24    15    16   ar
    25    16    17   ar
    26    17    18   ar
    27     7     8   ar
    28     8     9   ar
    29    25    26   ar
    30    26    21   ar
    31     9     5   ar
    32    18    10   ar
    33    18    13    1
    34     3     4    1
    35    14    19    1
@<TRIPOS>MOLECULE
*****
 32 35 0 0 0
SMALL
GASTEIGER

@<TRIPOS>ATOM
      1 C          63.7156   89.5063   14.8206 C.2     1  UNL1        0.2320
      2 O          62.5074   89.3388   15.6936 O.2     1  UNL1       -0.2744
      3 N          64.4719   88.3005   14.3473 N.am    1  UNL1       -0.2639
      4 H          65.2649   88.4104   13.7744 H       1  UNL1        0.1567
      5 C          64.0200   86.9272   14.7471 C.ar    1  UNL1        0.1655
      6 N          63.6536   85.8126   13.8125 N.ar    1  UNL1       -0.2239
      7 C          63.2623   84.6239   14.6394 C.ar    1  UNL1        0.0913
      8 C          63.3870   85.0037   16.0851 C.ar    1  UNL1        0.0573
      9 S          63.8553   86.4272   16.1517 S.2     1  UNL1       -0.0508
     10 C          62.8235   83.2896   14.1130 C.ar    1  UNL1        0.0403
     11 C          61.9708   82.2922   14.8397 C.ar    1  UNL1        0.1021
     12 N          61.7807   81.1047   13.9433 N.ar    1  UNL1       -0.2269
     13 C          62.5158   81.3681   12.6627 C.ar    1  UNL1        0.1406
     14 N          62.6816   80.5528   11.4146 N.ar    1  UNL1       -0.3374
     15 C          63.4920   81.0879   10.2714 C.ar    1  UNL1        0.0735
     16 C          64.1365   82.4383   10.3762 C.ar    1  UNL1        0.0186
     17 C          63.9707   83.2536   11.6243 C.ar    1  UNL1        0.0046
     18 C          63.1604   82.7185   12.7675 C.ar    1  UNL1        0.0370
     19 H          62.2586   79.6665   11.3458 H       1  UNL1        0.1674
     20 C          64.1675   90.8796   14.4208 C.3     1  UNL1        0.1117
     21 C          65.2157   92.5954   10.9992 C.ar    1  UNL1        0.1219
     22 C          64.1427   92.0830   10.0847 C.ar    1  UNL1        0.0199
     23 C          63.0779   91.1695   10.6156 C.ar    1  UNL1        0.0011
     24 C          63.0862   90.7683   12.0611 C.ar    1  UNL1       -0.0037
     25 C          64.1592   91.2807   12.9755 C.ar    1  UNL1       -0.0117
     26 C          65.2240   92.1943   12.4445 C.ar    1  UNL1        0.0161
     27 S          66.2804   93.5089   10.4683 S.O2    1  UNL1        0.0634
     28 O          67.1661   92.3262   10.2097 O.2     1  UNL1       -0.1528
     29 O          65.3947   94.6915   10.7268 O.2     1  UNL1       -0.1528
     30 C          68.5253   93.8537    9.2068 C.3     1  UNL1        0.1150
     31 N          67.3452   94.4223    9.9374 N.3     1  UNL1       -0.1526
     32 C          67.2297   95.9046   10.1371 C.3     1  UNL1        0.1150
@<TRIPOS>BOND
     1    30    31    1
     2    31    32    1
     3    31    27    1
     4    27    28    2
     5    27    29    2
     6    27    21    1
     7    21    22   ar
     8    22    23   ar
     9    23    24   ar
    10    24    25   ar
    11    25    20    1
    12    20     1    1
    13     1     2    2
    14     1     3   am
    15     3     5    1
    16     5     6   ar
    17     6     7   ar
    18     7    10    1
    19    10    11   ar
    20    11    12   ar
    21    12    13   ar
    22    13    14   ar
    23    14    15   ar
    24    15    16   ar
    25    16    17   ar
    26    17    18   ar
    27     7     8   ar
    28     8     9   ar
    29    25    26   ar
    30    26    21   ar
    31     9     5   ar
    32    18    10   ar
    33    18    13    1
    34     3     4    1
    35    14    19    1
@<TRIPOS>MOLECULE
*****
 32 35 0 0 0
SMALL
GASTEIGER

@<TRIPOS>ATOM
      1 C          63.4706   89.6503   14.9889 C.2     1  UNL1        0.2320
      2 O          62.3967   89.3481   15.9915 O.2     1  UNL1       -0.2744
      3 N          64.2359   88.5302   14.3489 N.am    1  UNL1       -0.2639
      4 H          64.9407   88.7285   13.6908 H       1  UNL1        0.1567
      5 C          63.9272   87.1079   14.7115 C.ar    1  UNL1        0.1655
      6 N          63.5228   86.0227   13.7582 N.ar    1  UNL1       -0.2239
      7 C          63.3144   84.7650   14.5486 C.ar    1  UNL1        0.0913
      8 C          63.5900   85.0728   15.9905 C.ar    1  UNL1        0.0573
      9 S          63.9687   86.5207   16.0913 S.2     1  UNL1       -0.0508
     10 C          62.9027   83.4334   13.9944 C.ar    1  UNL1        0.0403
     11 C          62.0813   82.3986   14.7047 C.ar    1  UNL1        0.1021
     12 N          61.9111   81.2284   13.7819 N.ar    1  UNL1       -0.2269
     13 C          62.6272   81.5399   12.5012 C.ar    1  UNL1        0.1406
     14 N          62.8004   80.7588   11.2325 N.ar    1  UNL1       -0.3374
     15 C          63.5865   81.3404   10.0951 C.ar    1  UNL1        0.0735
     16 C          64.1994   82.7032   10.2264 C.ar    1  UNL1        0.0186
     17 C          64.0261   83.4843   11.4952 C.ar    1  UNL1        0.0046
     18 C          63.2401   82.9027   12.6326 C.ar    1  UNL1        0.0370
     19 H          62.3982   79.8643   11.1463 H       1  UNL1        0.1674
     20 C          63.7793   91.0727   14.6262 C.3     1  UNL1        0.1117
     21 C          66.9095   92.3518   12.5487 C.ar    1  UNL1        0.1219
     22 C          67.9913   92.2657   13.5841 C.ar    1  UNL1        0.0199
     23 C          67.6692   91.7819   14.9669 C.ar    1  UNL1        0.0011
     24 C          66.2651   91.3843   15.3143 C.ar    1  UNL1       -0.0037
     25 C          65.1833   91.4704   14.2788 C.ar    1  UNL1       -0.0117
     26 C          65.5055   91.9541   12.8960 C.ar    1  UNL1        0.0161
     27 S          67.2316   92.8355   11.1658 S.O2    1  UNL1        0.0634
     28 O          65.9510   93.6161   11.1406 O.2     1  UNL1       -0.1528
     29 O          68.5122   92.0549   11.1910 O.2     1  UNL1       -0.1528
     30 C          66.9004   94.5605    9.2515 C.3     1  UNL1        0.1150
     31 N          67.5537   93.3193    9.7830 N.3     1  UNL1       -0.1526
     32 C          68.5291   92.5617    8.9316 C.3     1  UNL1        0.1150
@<TRIPOS>BOND
     1    30    31    1
     2    31    32    1
     3    31    27    1
     4    27    28    2
     5    27    29    2
     6    27    21    1
     7    21    22   ar
     8    22    23   ar
     9    23    24   ar
    10    24    25   ar
    11    25    20    1
    12    20     1    1
    13     1     2    2
    14     1     3   am
    15     3     5    1
    16     5     6   ar
    17     6     7   ar
    18     7    10    1
    19    10    11   ar
    20    11    12   ar
    21    12    13   ar
    22    13    14   ar
    23    14    15   ar
    24    15    16   ar
    25    16    17   ar
    26    17    18   ar
    27     7     8   ar
    28     8     9   ar
    29    25    26   ar
    30    26    21   ar
    31     9     5   ar
    32    18    10   ar
    33    18    13    1
    34     3     4    1
    35    14    19    1
@<TRIPOS>MOLECULE
*****
 32 35 0 0 0
SMALL
GASTEIGER

@<TRIPOS>ATOM
      1 C          63.5976   89.2703   14.2510 C.2     1  UNL1        0.2320
      2 O          63.2653   88.8162   12.8606 O.2     1  UNL1       -0.2744
      3 N          63.9171   88.2608   15.3134 N.am    1  UNL1       -0.2639
      4 H          64.1352   88.5588   16.2260 H       1  UNL1        0.1567
      5 C          63.9043   86.7972   14.9855 C.ar    1  UNL1        0.1655
      6 N          63.8194   86.2023   13.6111 N.ar    1  UNL1       -0.2239
      7 C          63.8368   84.7089   13.7504 C.ar    1  UNL1        0.0913
      8 C          63.9325   84.3807   15.2110 C.ar    1  UNL1        0.0573
      9 S          63.9742   85.6713   15.9742 S.2     1  UNL1       -0.0508
     10 C          63.7703   83.7177   12.6266 C.ar    1  UNL1        0.0403
     11 C          64.1925   83.9631   11.2083 C.ar    1  UNL1        0.1021
     12 N          63.9529   82.7040   10.4290 N.ar    1  UNL1       -0.2269
     13 C          63.3826   81.6805   11.3655 C.ar    1  UNL1        0.1406
     14 N          62.9515   80.2590   11.1571 N.ar    1  UNL1       -0.3374
     15 C          62.4075   79.4640   12.3068 C.ar    1  UNL1        0.0735
     16 C          62.2946   80.0905   13.6651 C.ar    1  UNL1        0.0186
     17 C          62.7257   81.5120   13.8735 C.ar    1  UNL1        0.0046
     18 C          63.2697   82.3070   12.7238 C.ar    1  UNL1        0.0370
     19 H          63.0256   79.8478   10.2656 H       1  UNL1        0.1674
     20 C          63.6104   90.7339   14.5791 C.3     1  UNL1        0.1117
     21 C          66.6093   92.6877   12.8646 C.ar    1  UNL1        0.1219
     22 C          67.3909   93.1211   14.0693 C.ar    1  UNL1        0.0199
     23 C          66.9123   92.7588   15.4439 C.ar    1  UNL1        0.0011
     24 C          65.6521   91.9631   15.6139 C.ar    1  UNL1       -0.0037
     25 C          64.8706   91.5296   14.4091 C.ar    1  UNL1       -0.0117
     26 C          65.3492   91.8920   13.0344 C.ar    1  UNL1        0.0161
     27 S          67.0879   93.0500   11.4899 S.O2    1  UNL1        0.0634
     28 O          65.9619   94.0320   11.3567 O.2     1  UNL1       -0.1528
     29 O          68.2140   92.0680   11.6231 O.2     1  UNL1       -0.1528
     30 C          68.4403   92.4625    9.3507 C.3     1  UNL1        0.1150
     31 N          67.5665   93.4122   10.1152 N.3     1  UNL1       -0.1526
     32 C          67.1712   94.7244    9.5050 C.3     1  UNL1        0.1150
@<TRIPOS>BOND
     1    30    31    1
     2    31    32    1
     3    31    27    1
     4    27    28    2
     5    27    29    2
     6    27    21    1
     7    21    22   ar
     8    22    23   ar
     9    23    24   ar
    10    24    25   ar
    11    25    20    1
    12    20     1    1
    13     1     2    2
    14     1     3   am
    15     3     5    1
    16     5     6   ar
    17     6     7   ar
    18     7    10    1
    19    10    11   ar
    20    11    12   ar
    21    12    13   ar
    22    13    14   ar
    23    14    15   ar
    24    15    16   ar
    25    16    17   ar
    26    17    18   ar
    27     7     8   ar
    28     8     9   ar
    29    25    26   ar
    30    26    21   ar
    31     9     5   ar
    32    18    10   ar
    33    18    13    1
    34     3     4    1
    35    14    19    1
@<TRIPOS>MOLECULE
*****
 32 35 0 0 0
SMALL
GASTEIGER

@<TRIPOS>ATOM
      1 C          62.0609   88.3127   11.3307 C.2     1  UNL1        0.2320
      2 O          61.7394   89.7402   11.0009 O.2     1  UNL1       -0.2744
      3 N          63.0563   87.9977   12.4077 N.am    1  UNL1       -0.2639
      4 H          63.2674   87.0607   12.6242 H       1  UNL1        0.1567
      5 C          63.7303   89.1101   13.1547 C.ar    1  UNL1        0.1655
      6 N          64.3401   90.3381   12.5463 N.ar    1  UNL1       -0.2239
      7 C          64.8995   91.1769   13.6569 C.ar    1  UNL1        0.0913
      8 C          64.6354   90.4673   14.9518 C.ar    1  UNL1        0.0573
      9 S          63.9128   89.1900   14.6415 S.2     1  UNL1       -0.0508
     10 C          65.6000   92.4940   13.5002 C.ar    1  UNL1        0.0403
     11 C          66.2480   93.2841   14.5982 C.ar    1  UNL1        0.1021
     12 N          66.8240   94.5306   13.9945 N.ar    1  UNL1       -0.2269
     13 C          66.5319   94.5109   12.5234 C.ar    1  UNL1        0.1406
     14 N          66.8570   95.4765   11.4225 N.ar    1  UNL1       -0.3374
     15 C          66.4257   95.1833   10.0162 C.ar    1  UNL1        0.0735
     16 C          65.6692   93.9246    9.7106 C.ar    1  UNL1        0.0186
     17 C          65.3441   92.9590   10.8114 C.ar    1  UNL1        0.0046
     18 C          65.7754   93.2522   12.2178 C.ar    1  UNL1        0.0370
     19 H          67.3535   96.3026   11.6231 H       1  UNL1        0.1674
     20 C          61.3869   87.2001   10.5837 C.3     1  UNL1        0.1117
     21 C          62.7681   83.5442   11.2738 C.ar    1  UNL1        0.1219
     22 C          63.5083   83.2751    9.9972 C.ar    1  UNL1        0.0199
     23 C          63.5414   84.3143    8.9161 C.ar    1  UNL1        0.0011
     24 C          62.8342   85.6228    9.1116 C.ar    1  UNL1       -0.0037
     25 C          62.0940   85.8918   10.3882 C.ar    1  UNL1       -0.0117
     26 C          62.0610   84.8525   11.4694 C.ar    1  UNL1        0.0161
     27 S          62.7351   82.5049   12.3550 S.O2    1  UNL1        0.0634
     28 O          62.9247   81.4293   11.3268 O.2     1  UNL1       -0.1528
     29 O          62.5454   83.5805   13.3831 O.2     1  UNL1       -0.1528
     30 C          63.9625   80.7562   13.8332 C.3     1  UNL1        0.1150
     31 N          62.7020   81.4656   13.4361 N.3     1  UNL1       -0.1526
     32 C          61.4083   81.1359   14.1201 C.3     1  UNL1        0.1150
@<TRIPOS>BOND
     1    30    31    1
     2    31    32    1
     3    31    27    1
     4    27    28    2
     5    27    29    2
     6    27    21    1
     7    21    22   ar
     8    22    23   ar
     9    23    24   ar
    10    24    25   ar
    11    25    20    1
    12    20     1    1
    13     1     2    2
    14     1     3   am
    15     3     5    1
    16     5     6   ar
    17     6     7   ar
    18     7    10    1
    19    10    11   ar
    20    11    12   ar
    21    12    13   ar
    22    13    14   ar
    23    14    15   ar
    24    15    16   ar
    25    16    17   ar
    26    17    18   ar
    27     7     8   ar
    28     8     9   ar
    29    25    26   ar
    30    26    21   ar
    31     9     5   ar
    32    18    10   ar
    33    18    13    1
    34     3     4    1
    35    14    19    1
@<TRIPOS>MOLECULE
*****
 32 35 0 0 0
SMALL
GASTEIGER

@<TRIPOS>ATOM
      1 C          64.4964   85.3602   15.2359 C.2     1  UNL1        0.2320
      2 O          65.8800   85.9162   15.0733 O.2     1  UNL1       -0.2744
      3 N          63.3418   86.2839   15.4884 N.am    1  UNL1       -0.2639
      4 H          62.4337   85.9190   15.5952 H       1  UNL1        0.1567
      5 C          63.5708   87.7635   15.5784 C.ar    1  UNL1        0.1655
      6 N          64.2831   88.6088   14.5644 N.ar    1  UNL1       -0.2239
      7 C          64.2803   90.0254   15.0575 C.ar    1  UNL1        0.0913
      8 C          63.5663   90.0557   16.3763 C.ar    1  UNL1        0.0573
      9 S          63.1279   88.6578   16.6983 S.2     1  UNL1       -0.0508
     10 C          64.8852   91.2047   14.3551 C.ar    1  UNL1        0.0403
     11 C          64.4634   91.7488   13.0224 C.ar    1  UNL1        0.1021
     12 N          65.3357   92.9273   12.7059 N.ar    1  UNL1       -0.2269
     13 C          66.2966   93.1115   13.8428 C.ar    1  UNL1        0.1406
     14 N          67.3891   94.1112   14.0817 N.ar    1  UNL1       -0.3374
     15 C          68.2032   94.0462   15.3398 C.ar    1  UNL1        0.0735
     16 C          67.9247   92.9815   16.3591 C.ar    1  UNL1        0.0186
     17 C          66.8323   91.9819   16.1203 C.ar    1  UNL1        0.0046
     18 C          66.0182   92.0469   14.8622 C.ar    1  UNL1        0.0370
     19 H          67.5718   94.8099   13.4127 H       1  UNL1        0.1674
     20 C          64.2673   83.8805   15.1459 C.3     1  UNL1        0.1117
     21 C          63.0712   83.5344   11.3776 C.ar    1  UNL1        0.1219
     22 C          62.8431   82.0546   11.2874 C.ar    1  UNL1        0.0199
     23 C          63.0898   81.1834   12.4833 C.ar    1  UNL1        0.0011
     24 C          63.5645   81.7921   13.7695 C.ar    1  UNL1       -0.0037
     25 C          63.7926   83.2719   13.8597 C.ar    1  UNL1       -0.0117
     26 C          63.5459   84.1431   12.6637 C.ar    1  UNL1        0.0161
     27 S          62.8246   84.4056   10.1817 S.O2    1  UNL1        0.0634
     28 O          63.8481   83.6306    9.4060 O.2     1  UNL1       -0.1528
     29 O          61.8010   85.1807   10.9575 O.2     1  UNL1       -0.1528
     30 C          62.0565   86.6714    9.1686 C.3     1  UNL1        0.1150
     31 N          62.5779   85.2768    8.9858 N.3     1  UNL1       -0.1526
     32 C          62.8527   84.7534    7.6071 C.3     1  UNL1        0.1150
@<TRIPOS>BOND
     1    30    31    1
     2    31    32    1
     3    31    27    1
     4    27    28    2
     5    27    29    2
     6    27    21    1
     7    21    22   ar
     8    22    23   ar
     9    23    24   ar
    10    24    25   ar
    11    25    20    1
    12    20     1    1
    13     1     2    2
    14     1     3   am
    15     3     5    1
    16     5     6   ar
    17     6     7   ar
    18     7    10    1
    19    10    11   ar
    20    11    12   ar
    21    12    13   ar
    22    13    14   ar
    23    14    15   ar
    24    15    16   ar
    25    16    17   ar
    26    17    18   ar
    27     7     8   ar
    28     8     9   ar
    29    25    26   ar
    30    26    21   ar
    31     9     5   ar
    32    18    10   ar
    33    18    13    1
    34     3     4    1
    35    14    19    1
@<TRIPOS>MOLECULE
*****
 32 35 0 0 0
SMALL
GASTEIGER

@<TRIPOS>ATOM
      1 C          62.1158   89.3204   12.0613 C.2     1  UNL1        0.2320
      2 O          60.7802   88.9273   11.5031 O.2     1  UNL1       -0.2744
      3 N          63.1622   88.2747   12.3093 N.am    1  UNL1       -0.2639
      4 H          64.0388   88.5328   12.6756 H       1  UNL1        0.1567
      5 C          62.8730   86.8360   11.9992 C.ar    1  UNL1        0.1655
      6 N          62.9604   85.6911   12.9644 N.ar    1  UNL1       -0.2239
      7 C          62.5871   84.4370   12.2312 C.ar    1  UNL1        0.0913
      8 C          62.2690   84.8066   10.8127 C.ar    1  UNL1        0.0573
      9 S          62.4457   86.2893   10.6693 S.2     1  UNL1       -0.0508
     10 C          62.5401   83.0557   12.8141 C.ar    1  UNL1        0.0403
     11 C          62.3558   82.7161   14.2634 C.ar    1  UNL1        0.1021
     12 N          62.3710   81.2219   14.3949 N.ar    1  UNL1       -0.2269
     13 C          62.5648   80.6381   13.0269 C.ar    1  UNL1        0.1406
     14 N          62.6595   79.2209   12.5446 N.ar    1  UNL1       -0.3374
     15 C          62.8588   78.9371   11.0853 C.ar    1  UNL1        0.0735
     16 C          62.9633   80.0704   10.1082 C.ar    1  UNL1        0.0186
     17 C          62.8686   81.4876   10.5905 C.ar    1  UNL1        0.0046
     18 C          62.6693   81.7714   12.0498 C.ar    1  UNL1        0.0370
     19 H          62.5909   78.4771   13.1859 H       1  UNL1        0.1674
     20 C          62.4050   90.7592   12.3714 C.3     1  UNL1        0.1117
     21 C          65.9846   92.4230   11.9609 C.ar    1  UNL1        0.1219
     22 C          66.6162   92.0641   13.2733 C.ar    1  UNL1        0.0199
     23 C          65.8440   91.2703   14.2850 C.ar    1  UNL1        0.0011
     24 C          64.4402   90.8353   13.9844 C.ar    1  UNL1       -0.0037
     25 C          63.8087   91.1942   12.6720 C.ar    1  UNL1       -0.0117
     26 C          64.5809   91.9880   11.6602 C.ar    1  UNL1        0.0161
     27 S          66.7567   93.2168   10.9491 S.O2    1  UNL1        0.0634
     28 O          67.8047   92.1444   10.9075 O.2     1  UNL1       -0.1528
     29 O          65.7087   94.2892   10.9907 O.2     1  UNL1       -0.1528
     30 C          67.1770   95.4465    9.6835 C.3     1  UNL1        0.1150
     31 N          67.5288   94.0106    9.9373 N.3     1  UNL1       -0.1526
     32 C          68.6529   93.3685    9.1794 C.3     1  UNL1        0.1150
@<TRIPOS>BOND
     1    30    31    1
     2    31    32    1
     3    31    27    1
     4    27    28    2
     5    27    29    2
     6    27    21    1
     7    21    22   ar
     8    22    23   ar
     9    23    24   ar
    10    24    25   ar
    11    25    20    1
    12    20     1    1
    13     1     2    2
    14     1     3   am
    15     3     5    1
    16     5     6   ar
    17     6     7   ar
    18     7    10    1
    19    10    11   ar
    20    11    12   ar
    21    12    13   ar
    22    13    14   ar
    23    14    15   ar
    24    15    16   ar
    25    16    17   ar
    26    17    18   ar
    27     7     8   ar
    28     8     9   ar
    29    25    26   ar
    30    26    21   ar
    31     9     5   ar
    32    18    10   ar
    33    18    13    1
    34     3     4    1
    35    14    19    1
@<TRIPOS>MOLECULE
*****
 32 35 0 0 0
SMALL
GASTEIGER

@<TRIPOS>ATOM
      1 C          63.1592   89.2671   12.7554 C.2     1  UNL1        0.2320
      2 O          62.5337   88.3612   11.7366 O.2     1  UNL1       -0.2744
      3 N          63.8641   88.6848   13.9445 N.am    1  UNL1       -0.2639
      4 H          64.2746   89.2794   14.6133 H       1  UNL1        0.1567
      5 C          63.9435   87.1967   14.1148 C.ar    1  UNL1        0.1655
      6 N          63.8262   86.1765   13.0214 N.ar    1  UNL1       -0.2239
      7 C          63.9644   84.8168   13.6392 C.ar    1  UNL1        0.0913
      8 C          64.1670   84.9964   15.1146 C.ar    1  UNL1        0.0573
      9 S          64.1541   86.4672   15.4085 S.2     1  UNL1       -0.0508
     10 C          63.9095   83.5072   12.9098 C.ar    1  UNL1        0.0403
     11 C          64.7291   83.1304   11.7114 C.ar    1  UNL1        0.1021
     12 N          64.3515   81.7349   11.3117 N.ar    1  UNL1       -0.2269
     13 C          63.2985   81.2491   12.2632 C.ar    1  UNL1        0.1406
     14 N          62.5531   79.9509   12.3577 N.ar    1  UNL1       -0.3374
     15 C          61.5346   79.7480   13.4400 C.ar    1  UNL1        0.0735
     16 C          61.2614   80.8434   14.4277 C.ar    1  UNL1        0.0186
     17 C          62.0067   82.1416   14.3331 C.ar    1  UNL1        0.0046
     18 C          63.0253   82.3444   13.2508 C.ar    1  UNL1        0.0370
     19 H          62.7324   79.2319   11.7095 H       1  UNL1        0.1674
     20 C          63.0798   90.7553   12.5852 C.3     1  UNL1        0.1117
     21 C          66.5319   92.5733   13.3119 C.ar    1  UNL1        0.1219
     22 C          66.8370   93.1524   11.9623 C.ar    1  UNL1        0.0199
     23 C          65.8897   92.9324   10.8202 C.ar    1  UNL1        0.0011
     24 C          64.6373   92.1333   11.0278 C.ar    1  UNL1       -0.0037
     25 C          64.3322   91.5543   12.3776 C.ar    1  UNL1       -0.0117
     26 C          65.2795   91.7743   13.5196 C.ar    1  UNL1        0.0161
     27 S          67.4791   92.7933   14.4540 S.O2    1  UNL1        0.0634
     28 O          68.6283   92.3892   13.5787 O.2     1  UNL1       -0.1528
     29 O          66.3300   93.1974   15.3293 O.2     1  UNL1       -0.1528
     30 C          68.8240   91.8630   16.4729 C.3     1  UNL1        0.1150
     31 N          68.4264   93.0133   15.5961 N.3     1  UNL1       -0.1526
     32 C          68.9761   94.3836   15.8613 C.3     1  UNL1        0.1150
@<TRIPOS>BOND
     1    30    31    1
     2    31    32    1
     3    31    27    1
     4    27    28    2
     5    27    29    2
     6    27    21    1
     7    21    22   ar
     8    22    23   ar
     9    23    24   ar
    10    24    25   ar
    11    25    20    1
    12    20     1    1
    13     1     2    2
    14     1     3   am
    15     3     5    1
    16     5     6   ar
    17     6     7   ar
    18     7    10    1
    19    10    11   ar
    20    11    12   ar
    21    12    13   ar
    22    13    14   ar
    23    14    15   ar
    24    15    16   ar
    25    16    17   ar
    26    17    18   ar
    27     7     8   ar
    28     8     9   ar
    29    25    26   ar
    30    26    21   ar
    31     9     5   ar
    32    18    10   ar
    33    18    13    1
    34     3     4    1
    35    14    19    1
