@<TRIPOS>MOLECULE
*****
 64 71 0 0 0
SMALL
GASTEIGER

@<TRIPOS>ATOM
      1 N          65.4614   89.9117   13.8054 N.3     1  UNL1       -0.1862
      2 C          65.8777   88.7985   14.7205 C.3     1  UNL1        0.1775
      3 C          65.1216   87.5030   14.7178 C.2     1  UNL1        0.2452
      4 O          65.5379   86.3897   15.6329 O.2     1  UNL1       -0.2732
      5 N          63.9492   87.3208   13.8001 N.am    1  UNL1       -0.2541
      6 C          63.1931   86.0253   13.7974 C.3     1  UNL1        0.1577
      7 C          62.0207   85.8430   12.8796 C.2     1  UNL1        0.2445
      8 O          61.2646   84.5475   12.8770 O.2     1  UNL1       -0.2731
      9 N          61.6044   86.9563   11.9645 N.am    1  UNL1       -0.2705
     10 C          62.3605   88.2518   11.9672 C.3     1  UNL1        0.1359
     11 C          63.5329   88.4340   12.8850 C.3     1  UNL1        0.1908
     12 N          64.2890   89.7295   12.8877 N.am    1  UNL1       -0.1863
     13 C          63.8727   90.8428   11.9726 C.2     1  UNL1        0.3191
     14 O          62.7003   90.6606   11.0549 O.2     1  UNL1       -0.2512
     15 N          64.6288   92.1383   11.9753 N.am    1  UNL1       -0.2836
     16 H          65.3983   92.2579   12.5777 H       1  UNL1        0.1513
     17 C          66.2175   91.2072   13.8081 C.3     1  UNL1        0.1188
     18 C          67.2677   92.6176   15.7207 C.2     1  UNL1       -0.0034
     19 C          67.3170   91.4318   14.8034 C.2     1  UNL1       -0.0071
     20 C          63.6094   84.9120   14.7124 C.3     1  UNL1        0.0556
     21 C          63.3527   83.4861   14.3238 C.ar    1  UNL1       -0.0198
     22 C          64.2674   82.7964   13.3556 C.ar    1  UNL1       -0.0011
     23 C          64.0108   81.3705   12.9670 C.ar    1  UNL1        0.0363
     24 C          62.8395   80.6343   13.5467 C.ar    1  UNL1        0.1337
     25 O          62.5829   79.2084   13.1581 O.3     1  UNL1       -0.5055
     26 C          61.9247   81.3241   14.5150 C.ar    1  UNL1        0.0363
     27 C          62.1814   82.7500   14.9036 C.ar    1  UNL1       -0.0011
     28 H          63.1543   78.7776   12.5533 H       1  UNL1        0.2922
     29 C          60.4320   86.7741   11.0468 C.3     1  UNL1        0.1217
     30 C          60.5825   87.0336    9.5771 C.ar    1  UNL1        0.0135
     31 C          61.1064   85.9557    8.6750 C.ar    1  UNL1       -0.0012
     32 C          61.2569   86.2152    7.2053 C.ar    1  UNL1       -0.0002
     33 C          60.8836   87.5525    6.6377 C.ar    1  UNL1        0.0015
     34 C          60.3597   88.6303    7.5398 C.ar    1  UNL1        0.0170
     35 C          59.9136   90.0367    7.2693 C.ar    1  UNL1        0.0186
     36 C          59.4873   90.6464    8.5719 C.ar    1  UNL1        0.0759
     37 N          59.6700   89.6169    9.6473 N.ar    1  UNL1       -0.3242
     38 C          59.3668   89.8010   11.1047 C.3     1  UNL1        0.1305
     39 C          60.2092   88.3709    9.0095 C.ar    1  UNL1        0.0575
     40 C          59.8967   90.7143    5.9312 C.ar    1  UNL1        0.0015
     41 C          58.6101   91.2530    5.3795 C.ar    1  UNL1        0.0002
     42 C          58.5933   91.9306    4.0414 C.ar    1  UNL1        0.0045
     43 C          59.8630   92.0696    3.2550 C.ar    1  UNL1        0.0537
     44 C          61.1497   91.5309    3.8067 C.ar    1  UNL1        0.0045
     45 C          61.1665   90.8533    5.1448 C.ar    1  UNL1        0.0002
     46 C          59.8461   92.7473    1.9169 C.2     1  UNL1        0.2495
     47 O          59.7059   94.2383    1.8331 O.2     1  UNL1       -0.2698
     48 N          59.9694   91.9339    0.6626 N.am    1  UNL1       -0.2804
     49 H          60.0615   90.9552    0.7176 H       1  UNL1        0.1552
     50 C          59.9525   92.6116   -0.6754 C.ar    1  UNL1        0.0507
     51 C          61.2153   93.1953   -1.2364 C.ar    1  UNL1        0.0178
     52 C          61.1985   93.8731   -2.5745 C.ar    1  UNL1        0.0382
     53 C          59.9189   93.9671   -3.3515 C.ar    1  UNL1        0.1388
     54 C          58.6561   93.3834   -2.7905 C.ar    1  UNL1        0.0382
     55 C          58.6729   92.7057   -1.4525 C.ar    1  UNL1        0.0178
     56 O          59.9019   94.6448   -4.6895 O.3     1  UNL1       -0.4714
     57 C          61.1665   94.7596   -5.4881 C.3     1  UNL1        0.2525
     58 C          64.2125   93.2515   11.0603 C.3     1  UNL1        0.1177
     59 C          65.2513   94.1200   10.4149 C.ar    1  UNL1       -0.0025
     60 C          66.5307   93.5154    9.9175 C.ar    1  UNL1       -0.0026
     61 C          67.5696   94.3839    9.2721 C.ar    1  UNL1       -0.0003
     62 C          67.3289   95.8570    9.1240 C.ar    1  UNL1       -0.0000
     63 C          66.0494   96.4617    9.6214 C.ar    1  UNL1       -0.0003
     64 C          65.0106   95.5932   10.2668 C.ar    1  UNL1       -0.0026
@<TRIPOS>BOND
     1    18    19    2
     2    19    17    1
     3    17     1    1
     4     1     2    1
     5     2     3    1
     6     3     4    2
     7     3     5   am
     8     5     6    1
     9     6    20    1
    10    20    21    1
    11    21    22   ar
    12    22    23   ar
    13    23    24   ar
    14    24    25    1
    15    24    26   ar
    16    26    27   ar
    17     6     7    1
    18     7     8    2
    19     7     9   am
    20     9    29    1
    21    29    30    1
    22    30    31   ar
    23    31    32   ar
    24    32    33   ar
    25    33    34   ar
    26    34    35   ar
    27    35    40    1
    28    40    41   ar
    29    41    42   ar
    30    42    43   ar
    31    43    46    1
    32    46    47    2
    33    46    48   am
    34    48    50    1
    35    50    51   ar
    36    51    52   ar
    37    52    53   ar
    38    53    56    1
    39    56    57    1
    40    53    54   ar
    41    54    55   ar
    42    43    44   ar
    43    44    45   ar
    44    35    36   ar
    45    36    37   ar
    46    37    38    1
    47    37    39   ar
    48     9    10    1
    49    11    10    1
    50    11    12    1
    51    12    13   am
    52    13    14    2
    53    13    15   am
    54    15    58    1
    55    58    59    1
    56    59    60   ar
    57    60    61   ar
    58    61    62   ar
    59    62    63   ar
    60    63    64   ar
    61    12     1    1
    62    64    59   ar
    63    11     5    1
    64    27    21   ar
    65    39    30   ar
    66    39    34   ar
    67    45    40   ar
    68    55    50   ar
    69    25    28    1
    70    48    49    1
    71    15    16    1
@<TRIPOS>MOLECULE
*****
 64 71 0 0 0
SMALL
GASTEIGER

@<TRIPOS>ATOM
      1 N          65.6571   89.4215   14.4567 N.3     1  UNL1       -0.1862
      2 C          65.9338   88.1800   15.2518 C.3     1  UNL1        0.1775
      3 C          65.1034   86.9498   15.0348 C.2     1  UNL1        0.2452
      4 O          65.3801   85.7083   15.8300 O.2     1  UNL1       -0.2732
      5 N          63.9963   86.9611   14.0228 N.am    1  UNL1       -0.2541
      6 C          63.1659   85.7309   13.8059 C.3     1  UNL1        0.1577
      7 C          62.0588   85.7421   12.7939 C.2     1  UNL1        0.2445
      8 O          61.2284   84.5119   12.5770 O.2     1  UNL1       -0.2731
      9 N          61.7821   86.9836   11.9987 N.am    1  UNL1       -0.2705
     10 C          62.6125   88.2138   12.2156 C.3     1  UNL1        0.1359
     11 C          63.7196   88.2025   13.2277 C.3     1  UNL1        0.1908
     12 N          64.5500   89.4327   13.4446 N.am    1  UNL1       -0.1863
     13 C          64.2733   90.6742   12.6495 C.2     1  UNL1        0.3191
     14 O          63.1663   90.6854   11.6374 O.2     1  UNL1       -0.2512
     15 N          65.1037   91.9044   12.8664 N.am    1  UNL1       -0.2836
     16 H          65.8303   91.8970   13.5306 H       1  UNL1        0.1513
     17 C          66.4875   90.6517   14.6736 C.3     1  UNL1        0.1188
     18 C          66.9990   92.7447   16.1252 C.2     1  UNL1       -0.0034
     19 C          66.0350   91.7001   15.6462 C.2     1  UNL1       -0.0071
     20 C          63.4426   84.4894   14.6010 C.3     1  UNL1        0.0556
     21 C          63.2192   83.1396   13.9861 C.ar    1  UNL1       -0.0198
     22 C          62.0911   82.2747   14.4649 C.ar    1  UNL1       -0.0011
     23 C          61.8677   80.9249   13.8500 C.ar    1  UNL1        0.0363
     24 C          62.7724   80.4400   12.7563 C.ar    1  UNL1        0.1337
     25 O          62.5491   79.0902   12.1414 O.3     1  UNL1       -0.5055
     26 C          63.9006   81.3049   12.2774 C.ar    1  UNL1        0.0363
     27 C          64.1240   82.6547   12.8923 C.ar    1  UNL1       -0.0011
     28 H          61.8444   78.5499   12.4405 H       1  UNL1        0.2922
     29 C          60.6751   86.9948   10.9867 C.3     1  UNL1        0.1217
     30 C          60.3391   88.2614   10.2566 C.ar    1  UNL1        0.0135
     31 C          59.9309   89.4838   11.0242 C.ar    1  UNL1       -0.0012
     32 C          59.5949   90.7504   10.2943 C.ar    1  UNL1       -0.0002
     33 C          59.6671   90.7946    8.7967 C.ar    1  UNL1        0.0015
     34 C          60.0754   89.5722    8.0291 C.ar    1  UNL1        0.0170
     35 C          60.2354   89.3167    6.5597 C.ar    1  UNL1        0.0186
     36 C          60.6702   87.8922    6.3816 C.ar    1  UNL1        0.0759
     37 N          60.7790   87.2674    7.7408 N.ar    1  UNL1       -0.3242
     38 C          61.1842   85.8526    8.0310 C.3     1  UNL1        0.1305
     39 C          60.4113   88.3057    8.7590 C.ar    1  UNL1        0.0575
     40 C          60.0015   90.3111    5.4612 C.ar    1  UNL1        0.0015
     41 C          58.6185   90.8305    5.2017 C.ar    1  UNL1        0.0002
     42 C          58.3847   91.8249    4.1033 C.ar    1  UNL1        0.0045
     43 C          59.5340   92.2999    3.2644 C.ar    1  UNL1        0.0537
     44 C          60.9170   91.7805    3.5240 C.ar    1  UNL1        0.0045
     45 C          61.1508   90.7861    4.6224 C.ar    1  UNL1        0.0002
     46 C          59.3001   93.2943    2.1661 C.2     1  UNL1        0.2495
     47 O          59.6810   94.7318    2.3622 O.2     1  UNL1       -0.2698
     48 N          58.6854   92.8513    0.8715 N.am    1  UNL1       -0.2804
     49 H          58.4355   91.9078    0.7427 H       1  UNL1        0.1552
     50 C          58.4516   93.8457   -0.2269 C.ar    1  UNL1        0.0507
     51 C          59.5731   94.7264   -0.6924 C.ar    1  UNL1        0.0178
     52 C          59.3394   95.7209   -1.7907 C.ar    1  UNL1        0.0382
     53 C          57.9842   95.8347   -2.4235 C.ar    1  UNL1        0.1388
     54 C          56.8627   94.9541   -1.9580 C.ar    1  UNL1        0.0382
     55 C          57.0964   93.9596   -0.8597 C.ar    1  UNL1        0.0178
     56 O          57.7504   96.8292   -3.5218 O.3     1  UNL1       -0.4714
     57 C          57.1450   96.3842   -4.8201 C.3     1  UNL1        0.2525
     58 C          64.8271   93.1458   12.0713 C.3     1  UNL1        0.1177
     59 C          65.7984   93.5954   11.0203 C.ar    1  UNL1       -0.0025
     60 C          66.8293   92.6412   10.4945 C.ar    1  UNL1       -0.0026
     61 C          67.8006   93.0907    9.4435 C.ar    1  UNL1       -0.0003
     62 C          67.7410   94.4945    8.9185 C.ar    1  UNL1       -0.0000
     63 C          66.7100   95.4488    9.4443 C.ar    1  UNL1       -0.0003
     64 C          65.7387   94.9993   10.4952 C.ar    1  UNL1       -0.0026
@<TRIPOS>BOND
     1    18    19    2
     2    19    17    1
     3    17     1    1
     4     1     2    1
     5     2     3    1
     6     3     4    2
     7     3     5   am
     8     5     6    1
     9     6    20    1
    10    20    21    1
    11    21    22   ar
    12    22    23   ar
    13    23    24   ar
    14    24    25    1
    15    24    26   ar
    16    26    27   ar
    17     6     7    1
    18     7     8    2
    19     7     9   am
    20     9    29    1
    21    29    30    1
    22    30    31   ar
    23    31    32   ar
    24    32    33   ar
    25    33    34   ar
    26    34    35   ar
    27    35    40    1
    28    40    41   ar
    29    41    42   ar
    30    42    43   ar
    31    43    46    1
    32    46    47    2
    33    46    48   am
    34    48    50    1
    35    50    51   ar
    36    51    52   ar
    37    52    53   ar
    38    53    56    1
    39    56    57    1
    40    53    54   ar
    41    54    55   ar
    42    43    44   ar
    43    44    45   ar
    44    35    36   ar
    45    36    37   ar
    46    37    38    1
    47    37    39   ar
    48     9    10    1
    49    11    10    1
    50    11    12    1
    51    12    13   am
    52    13    14    2
    53    13    15   am
    54    15    58    1
    55    58    59    1
    56    59    60   ar
    57    60    61   ar
    58    61    62   ar
    59    62    63   ar
    60    63    64   ar
    61    12     1    1
    62    64    59   ar
    63    11     5    1
    64    27    21   ar
    65    39    30   ar
    66    39    34   ar
    67    45    40   ar
    68    55    50   ar
    69    25    28    1
    70    48    49    1
    71    15    16    1
@<TRIPOS>MOLECULE
*****
 64 71 0 0 0
SMALL
GASTEIGER

@<TRIPOS>ATOM
      1 N          64.5670   83.1769   13.3310 N.3     1  UNL1       -0.1862
      2 C          65.1535   84.0229   14.4220 C.3     1  UNL1        0.1775
      3 C          64.7250   85.4522   14.5752 C.2     1  UNL1        0.2452
      4 O          65.3116   86.2982   15.6663 O.2     1  UNL1       -0.2732
      5 N          63.7101   86.0355   13.6374 N.am    1  UNL1       -0.2541
      6 C          63.2816   87.4649   13.7906 C.3     1  UNL1        0.1577
      7 C          62.2666   88.0482   12.8528 C.2     1  UNL1        0.2445
      8 O          61.8381   89.4775   13.0060 O.2     1  UNL1       -0.2731
      9 N          61.6801   87.2022   11.7617 N.am    1  UNL1       -0.2705
     10 C          62.1085   85.7729   11.6085 C.3     1  UNL1        0.1359
     11 C          63.1236   85.1896   12.5464 C.3     1  UNL1        0.1908
     12 N          63.5521   83.7603   12.3932 N.am    1  UNL1       -0.1863
     13 C          62.9655   82.9143   11.3022 C.2     1  UNL1        0.3191
     14 O          61.9505   83.4976   10.3644 O.2     1  UNL1       -0.2512
     15 N          63.3940   81.4849   11.1490 N.am    1  UNL1       -0.2836
     16 H          64.0602   81.1021   11.7645 H       1  UNL1        0.1513
     17 C          64.9955   81.7476   13.1778 C.3     1  UNL1        0.1188
     18 C          62.7825   80.8511   14.2019 C.2     1  UNL1       -0.0034
     19 C          64.2325   80.6576   13.8703 C.2     1  UNL1       -0.0071
     20 C          63.8681   88.3108   14.8816 C.3     1  UNL1        0.0556
     21 C          64.4042   89.6758   14.5661 C.ar    1  UNL1       -0.0198
     22 C          64.6138   90.0879   13.1392 C.ar    1  UNL1       -0.0011
     23 C          65.1500   91.4528   12.8237 C.ar    1  UNL1        0.0363
     24 C          65.4765   92.4056   13.9352 C.ar    1  UNL1        0.1337
     25 O          66.0127   93.7706   13.6198 O.3     1  UNL1       -0.5055
     26 C          65.2669   91.9935   15.3623 C.ar    1  UNL1        0.0363
     27 C          64.7308   90.6286   15.6777 C.ar    1  UNL1       -0.0011
     28 H          66.1436   94.0280   12.7284 H       1  UNL1        0.2922
     29 C          60.6651   87.7855   10.8239 C.3     1  UNL1        0.1217
     30 C          61.0480   88.9123    9.9108 C.ar    1  UNL1        0.0135
     31 C          62.0763   89.9139   10.3459 C.ar    1  UNL1       -0.0012
     32 C          62.4592   91.0407    9.4328 C.ar    1  UNL1       -0.0002
     33 C          61.8138   91.1658    8.0846 C.ar    1  UNL1        0.0015
     34 C          60.7855   90.1642    7.6495 C.ar    1  UNL1        0.0170
     35 C          59.9848   90.0312    6.3881 C.ar    1  UNL1        0.0186
     36 C          59.1070   88.8222    6.5216 C.ar    1  UNL1        0.0759
     37 N          59.3652   88.2081    7.8655 N.ar    1  UNL1       -0.3242
     38 C          58.7025   86.9801    8.4157 C.3     1  UNL1        0.1305
     39 C          60.4026   89.0375    8.5626 C.ar    1  UNL1        0.0575
     40 C          60.0503   90.9465    5.2014 C.ar    1  UNL1        0.0015
     41 C          61.3565   91.1713    4.4989 C.ar    1  UNL1        0.0002
     42 C          61.4219   92.0865    3.3124 C.ar    1  UNL1        0.0045
     43 C          60.1814   92.7770    2.8283 C.ar    1  UNL1        0.0537
     44 C          58.8753   92.5522    3.5308 C.ar    1  UNL1        0.0045
     45 C          58.8098   91.6369    4.7174 C.ar    1  UNL1        0.0002
     46 C          60.2470   93.6922    1.6417 C.2     1  UNL1        0.2495
     47 O          59.8729   95.1375    1.7877 O.2     1  UNL1       -0.2698
     48 N          60.6867   93.1623    0.3091 N.am    1  UNL1       -0.2804
     49 H          60.9322   92.2138    0.2132 H       1  UNL1        0.1552
     50 C          60.7522   94.0776   -0.8775 C.ar    1  UNL1        0.0507
     51 C          59.5273   94.3151   -1.7100 C.ar    1  UNL1        0.0178
     52 C          59.5927   95.2304   -2.8966 C.ar    1  UNL1        0.0382
     53 C          60.8831   95.9082   -3.2505 C.ar    1  UNL1        0.1388
     54 C          62.1081   95.6708   -2.4180 C.ar    1  UNL1        0.0382
     55 C          62.0426   94.7555   -1.2314 C.ar    1  UNL1        0.0178
     56 O          60.9487   96.8236   -4.4371 O.3     1  UNL1       -0.4714
     57 C          62.1556   96.8116   -5.3278 C.3     1  UNL1        0.2525
     58 C          62.8075   80.6390   10.0580 C.3     1  UNL1        0.1177
     59 C          63.1159   79.1722    9.9984 C.ar    1  UNL1       -0.0025
     60 C          64.0454   78.6434    8.9465 C.ar    1  UNL1       -0.0026
     61 C          64.3538   77.1767    8.8869 C.ar    1  UNL1       -0.0003
     62 C          63.7327   76.2388    9.8791 C.ar    1  UNL1       -0.0000
     63 C          62.8032   76.7675   10.9310 C.ar    1  UNL1       -0.0003
     64 C          62.4948   78.2343   10.9906 C.ar    1  UNL1       -0.0026
@<TRIPOS>BOND
     1    18    19    2
     2    19    17    1
     3    17     1    1
     4     1     2    1
     5     2     3    1
     6     3     4    2
     7     3     5   am
     8     5     6    1
     9     6    20    1
    10    20    21    1
    11    21    22   ar
    12    22    23   ar
    13    23    24   ar
    14    24    25    1
    15    24    26   ar
    16    26    27   ar
    17     6     7    1
    18     7     8    2
    19     7     9   am
    20     9    29    1
    21    29    30    1
    22    30    31   ar
    23    31    32   ar
    24    32    33   ar
    25    33    34   ar
    26    34    35   ar
    27    35    40    1
    28    40    41   ar
    29    41    42   ar
    30    42    43   ar
    31    43    46    1
    32    46    47    2
    33    46    48   am
    34    48    50    1
    35    50    51   ar
    36    51    52   ar
    37    52    53   ar
    38    53    56    1
    39    56    57    1
    40    53    54   ar
    41    54    55   ar
    42    43    44   ar
    43    44    45   ar
    44    35    36   ar
    45    36    37   ar
    46    37    38    1
    47    37    39   ar
    48     9    10    1
    49    11    10    1
    50    11    12    1
    51    12    13   am
    52    13    14    2
    53    13    15   am
    54    15    58    1
    55    58    59    1
    56    59    60   ar
    57    60    61   ar
    58    61    62   ar
    59    62    63   ar
    60    63    64   ar
    61    12     1    1
    62    64    59   ar
    63    11     5    1
    64    27    21   ar
    65    39    30   ar
    66    39    34   ar
    67    45    40   ar
    68    55    50   ar
    69    25    28    1
    70    48    49    1
    71    15    16    1
