@<TRIPOS>MOLECULE
*****
 27 29 0 0 0
SMALL
GASTEIGER

@<TRIPOS>ATOM
      1 C          61.8334   86.4225   10.7303 C.ar    1  UNL1        0.0032
      2 C          60.9148   87.1058    9.7611 C.ar    1  UNL1        0.0369
      3 C          60.8761   88.6038    9.6932 C.ar    1  UNL1        0.1387
      4 C          61.7559   89.4184   10.5946 C.ar    1  UNL1        0.0369
      5 C          62.6744   88.7351   11.5638 C.ar    1  UNL1        0.0030
      6 C          62.7131   87.2371   11.6317 C.ar    1  UNL1        0.0002
      7 C          63.5541   89.5497   12.4652 C.ar    1  UNL1        0.0001
      8 C          63.8766   89.0563   13.8445 C.ar    1  UNL1        0.0000
      9 C          64.7563   89.8709   14.7458 C.ar    1  UNL1        0.0001
     10 C          65.3136   91.1789   14.2678 C.ar    1  UNL1        0.0030
     11 C          66.1934   91.9935   15.1692 C.ar    1  UNL1        0.0369
     12 C          66.7508   93.3015   14.6912 C.ar    1  UNL1        0.1387
     13 C          66.4283   93.7949   13.3118 C.ar    1  UNL1        0.0369
     14 C          65.5485   92.9803   12.4105 C.ar    1  UNL1        0.0031
     15 C          64.9912   91.6723   12.8885 C.ar    1  UNL1        0.0002
     16 C          64.1115   90.8577   11.9872 C.ar    1  UNL1        0.0000
     17 O          67.6305   94.1161   15.5926 O.3     1  UNL1       -0.4714
     18 C          69.0026   93.6239   15.9464 C.3     1  UNL1        0.2525
     19 C          62.8091   84.2408   11.7494 C.2     1  UNL1        0.0577
     20 C          61.8721   84.9245   10.7982 C.2     1  UNL1        0.0048
     21 C          62.3674   80.5355   13.1006 C.3     1  UNL1        0.1109
     22 N          62.3286   82.0335   13.0327 N.am    1  UNL1       -0.2992
     23 C          62.8478   82.7429   11.8173 C.2     1  UNL1        0.2460
     24 O          63.4058   81.9543   10.6697 O.2     1  UNL1       -0.2701
     25 H          61.9624   82.5511   13.7859 H       1  UNL1        0.1498
     26 O          59.9576   89.2872    8.7240 O.3     1  UNL1       -0.4714
     27 C          59.3955   88.5266    7.5597 C.3     1  UNL1        0.2525
@<TRIPOS>BOND
     1    21    22    1
     2    22    23   am
     3    23    24    2
     4    23    19    1
     5    19    20    2
     6    20     1    1
     7     1     2   ar
     8     2     3   ar
     9     3    26    1
    10    26    27    1
    11     3     4   ar
    12     4     5   ar
    13     5     7    1
    14     7     8   ar
    15     8     9   ar
    16     9    10   ar
    17    10    11   ar
    18    11    12   ar
    19    12    17    1
    20    17    18    1
    21    12    13   ar
    22    13    14   ar
    23    14    15   ar
    24    15    16   ar
    25     5     6   ar
    26     6     1   ar
    27    16     7   ar
    28    15    10   ar
    29    22    25    1
@<TRIPOS>MOLECULE
*****
 27 29 0 0 0
SMALL
GASTEIGER

@<TRIPOS>ATOM
      1 C          61.5124   86.4074   10.1196 C.ar    1  UNL1        0.0032
      2 C          60.4052   86.8236    9.1971 C.ar    1  UNL1        0.0369
      3 C          60.1940   88.2758    8.8862 C.ar    1  UNL1        0.1387
      4 C          61.0900   89.3117    9.4979 C.ar    1  UNL1        0.0369
      5 C          62.1971   88.8955   10.4203 C.ar    1  UNL1        0.0030
      6 C          62.4083   87.4433   10.7312 C.ar    1  UNL1        0.0002
      7 C          63.0932   89.9314   11.0320 C.ar    1  UNL1        0.0001
      8 C          63.5280   91.1182   10.2243 C.ar    1  UNL1        0.0000
      9 C          64.4240   92.1541   10.8359 C.ar    1  UNL1        0.0001
     10 C          64.8851   92.0031   12.2553 C.ar    1  UNL1        0.0030
     11 C          65.7811   93.0391   12.8669 C.ar    1  UNL1        0.0369
     12 C          66.2423   92.8882   14.2863 C.ar    1  UNL1        0.1387
     13 C          65.8074   91.7013   15.0940 C.ar    1  UNL1        0.0369
     14 C          64.9115   90.6654   14.4823 C.ar    1  UNL1        0.0031
     15 C          64.4503   90.8164   13.0630 C.ar    1  UNL1        0.0002
     16 C          63.5543   89.7805   12.4513 C.ar    1  UNL1        0.0000
     17 O          67.1383   93.9240   14.8979 O.3     1  UNL1       -0.4714
     18 C          68.3338   93.5025   15.6999 C.3     1  UNL1        0.2525
     19 C          62.9065   84.5275   11.2476 C.2     1  UNL1        0.0577
     20 C          61.7235   84.9552   10.4305 C.2     1  UNL1        0.0048
     21 C          62.6785   81.0120   13.0749 C.3     1  UNL1        0.1109
     22 N          62.4673   82.4641   12.7640 N.am    1  UNL1       -0.2992
     23 C          63.1177   83.0753   11.5585 C.2     1  UNL1        0.2460
     24 O          63.9793   82.2344   10.6637 O.2     1  UNL1       -0.2701
     25 H          61.9018   83.0161   13.3512 H       1  UNL1        0.1498
     26 O          59.0869   88.6920    7.9637 O.3     1  UNL1       -0.4714
     27 C          59.4071   89.3849    6.6725 C.3     1  UNL1        0.2525
@<TRIPOS>BOND
     1    21    22    1
     2    22    23   am
     3    23    24    2
     4    23    19    1
     5    19    20    2
     6    20     1    1
     7     1     2   ar
     8     2     3   ar
     9     3    26    1
    10    26    27    1
    11     3     4   ar
    12     4     5   ar
    13     5     7    1
    14     7     8   ar
    15     8     9   ar
    16     9    10   ar
    17    10    11   ar
    18    11    12   ar
    19    12    17    1
    20    17    18    1
    21    12    13   ar
    22    13    14   ar
    23    14    15   ar
    24    15    16   ar
    25     5     6   ar
    26     6     1   ar
    27    16     7   ar
    28    15    10   ar
    29    22    25    1
@<TRIPOS>MOLECULE
*****
 27 29 0 0 0
SMALL
GASTEIGER

@<TRIPOS>ATOM
      1 C          64.3908   90.8370   13.3641 C.ar    1  UNL1        0.0032
      2 C          63.6148   91.2641   12.1535 C.ar    1  UNL1        0.0369
      3 C          62.8544   90.2484   11.3534 C.ar    1  UNL1        0.1387
      4 C          62.8700   88.8057   11.7639 C.ar    1  UNL1        0.0369
      5 C          63.6460   88.3787   12.9745 C.ar    1  UNL1        0.0030
      6 C          64.4064   89.3944   13.7746 C.ar    1  UNL1        0.0002
      7 C          63.6616   86.9360   13.3850 C.ar    1  UNL1        0.0001
      8 C          64.2492   86.5387   14.7067 C.ar    1  UNL1        0.0000
      9 C          64.2648   85.0960   15.1172 C.ar    1  UNL1        0.0001
     10 C          63.6928   84.0508   14.2060 C.ar    1  UNL1        0.0030
     11 C          63.7084   82.6081   14.6165 C.ar    1  UNL1        0.0369
     12 C          63.1364   81.5628   13.7053 C.ar    1  UNL1        0.1387
     13 C          62.5488   81.9602   12.3836 C.ar    1  UNL1        0.0369
     14 C          62.5332   83.4029   11.9732 C.ar    1  UNL1        0.0031
     15 C          63.1052   84.4481   12.8843 C.ar    1  UNL1        0.0002
     16 C          63.0896   85.8908   12.4739 C.ar    1  UNL1        0.0000
     17 O          63.1520   80.1202   14.1158 O.3     1  UNL1       -0.4714
     18 C          62.2575   79.1341   13.4248 C.3     1  UNL1        0.2525
     19 C          66.5225   91.5285   14.6787 C.2     1  UNL1        0.0577
     20 C          65.1512   91.8527   14.1642 C.2     1  UNL1        0.0048
     21 C          69.3813   94.0416   15.8018 C.3     1  UNL1        0.1109
     22 N          68.6209   93.0259   15.0017 N.am    1  UNL1       -0.2992
     23 C          67.2829   92.5442   15.4788 C.2     1  UNL1        0.2460
     24 O          66.7052   93.0782   16.7560 O.2     1  UNL1       -0.2701
     25 H          69.0001   92.6754   14.1635 H       1  UNL1        0.1498
     26 O          62.0784   90.6753   10.1428 O.3     1  UNL1       -0.4714
     27 C          60.9484   89.8273    9.6388 C.3     1  UNL1        0.2525
@<TRIPOS>BOND
     1    21    22    1
     2    22    23   am
     3    23    24    2
     4    23    19    1
     5    19    20    2
     6    20     1    1
     7     1     2   ar
     8     2     3   ar
     9     3    26    1
    10    26    27    1
    11     3     4   ar
    12     4     5   ar
    13     5     7    1
    14     7     8   ar
    15     8     9   ar
    16     9    10   ar
    17    10    11   ar
    18    11    12   ar
    19    12    17    1
    20    17    18    1
    21    12    13   ar
    22    13    14   ar
    23    14    15   ar
    24    15    16   ar
    25     5     6   ar
    26     6     1   ar
    27    16     7   ar
    28    15    10   ar
    29    22    25    1
@<TRIPOS>MOLECULE
*****
 27 29 0 0 0
SMALL
GASTEIGER

@<TRIPOS>ATOM
      1 C          62.0403   90.0105   10.0555 C.ar    1  UNL1        0.0032
      2 C          60.9337   90.1006    9.0469 C.ar    1  UNL1        0.0369
      3 C          60.2575   88.8525    8.5619 C.ar    1  UNL1        0.1387
      4 C          60.6880   87.5144    9.0856 C.ar    1  UNL1        0.0369
      5 C          61.7946   87.4243   10.0942 C.ar    1  UNL1        0.0030
      6 C          62.4707   88.6724   10.5792 C.ar    1  UNL1        0.0002
      7 C          62.2250   86.0862   10.6179 C.ar    1  UNL1        0.0001
      8 C          62.8176   85.0713    9.6858 C.ar    1  UNL1        0.0000
      9 C          63.2480   83.7333   10.2095 C.ar    1  UNL1        0.0001
     10 C          63.0859   83.4101   11.6653 C.ar    1  UNL1        0.0030
     11 C          63.5164   82.0720   12.1890 C.ar    1  UNL1        0.0369
     12 C          63.3542   81.7488   13.6448 C.ar    1  UNL1        0.1387
     13 C          62.7616   82.7638   14.5769 C.ar    1  UNL1        0.0369
     14 C          62.3312   84.1019   14.0532 C.ar    1  UNL1        0.0031
     15 C          62.4933   84.4250   12.5974 C.ar    1  UNL1        0.0002
     16 C          62.0629   85.7631   12.0737 C.ar    1  UNL1        0.0000
     17 O          63.7846   80.4108   14.1685 O.3     1  UNL1       -0.4714
     18 C          62.9476   79.1954   13.8995 C.3     1  UNL1        0.2525
     19 C          64.1854   91.2460   10.8442 C.2     1  UNL1        0.0577
     20 C          62.7165   91.2585   10.5405 C.2     1  UNL1        0.0048
     21 C          65.9626   94.7945   10.8334 C.3     1  UNL1        0.1109
     22 N          65.2865   93.5464   10.3484 N.am    1  UNL1       -0.2992
     23 C          64.8616   92.4941   11.3292 C.2     1  UNL1        0.2460
     24 O          65.1129   92.6897   12.7950 O.2     1  UNL1       -0.2701
     25 H          65.1215   93.4180    9.3863 H       1  UNL1        0.1498
     26 O          59.1509   88.9426    7.5533 O.3     1  UNL1       -0.4714
     27 C          59.3584   89.7051    6.2784 C.3     1  UNL1        0.2525
@<TRIPOS>BOND
     1    21    22    1
     2    22    23   am
     3    23    24    2
     4    23    19    1
     5    19    20    2
     6    20     1    1
     7     1     2   ar
     8     2     3   ar
     9     3    26    1
    10    26    27    1
    11     3     4   ar
    12     4     5   ar
    13     5     7    1
    14     7     8   ar
    15     8     9   ar
    16     9    10   ar
    17    10    11   ar
    18    11    12   ar
    19    12    17    1
    20    17    18    1
    21    12    13   ar
    22    13    14   ar
    23    14    15   ar
    24    15    16   ar
    25     5     6   ar
    26     6     1   ar
    27    16     7   ar
    28    15    10   ar
    29    22    25    1
@<TRIPOS>MOLECULE
*****
 27 29 0 0 0
SMALL
GASTEIGER

@<TRIPOS>ATOM
      1 C          64.4024   91.4396   12.6482 C.ar    1  UNL1        0.0032
      2 C          64.2996   91.8737   14.0804 C.ar    1  UNL1        0.0369
      3 C          63.9121   90.8833   15.1382 C.ar    1  UNL1        0.1387
      4 C          63.6276   89.4589   14.7639 C.ar    1  UNL1        0.0369
      5 C          63.7304   89.0249   13.3318 C.ar    1  UNL1        0.0030
      6 C          64.1178   90.0152   12.2740 C.ar    1  UNL1        0.0002
      7 C          63.4458   87.6004   12.9575 C.ar    1  UNL1        0.0001
      8 C          62.6257   87.2945   11.7395 C.ar    1  UNL1        0.0000
      9 C          62.3411   85.8701   11.3652 C.ar    1  UNL1        0.0001
     10 C          62.8768   84.7516   12.2091 C.ar    1  UNL1        0.0030
     11 C          62.5922   83.3272   11.8347 C.ar    1  UNL1        0.0369
     12 C          63.1278   82.2087   12.6786 C.ar    1  UNL1        0.1387
     13 C          63.9480   82.5146   13.8967 C.ar    1  UNL1        0.0369
     14 C          64.2325   83.9390   14.2710 C.ar    1  UNL1        0.0031
     15 C          63.6969   85.0575   13.4271 C.ar    1  UNL1        0.0002
     16 C          63.9814   86.4819   13.8014 C.ar    1  UNL1        0.0000
     17 O          62.8432   80.7843   12.3043 O.3     1  UNL1       -0.4714
     18 C          62.1647   79.8727   13.2835 C.3     1  UNL1        0.2525
     19 C          65.8382   93.4635   11.8783 C.2     1  UNL1        0.0577
     20 C          64.7898   92.4299   11.5903 C.2     1  UNL1        0.0048
     21 C          65.6166   96.4577    9.2830 C.3     1  UNL1        0.1109
     22 N          65.2292   95.4673   10.3409 N.am    1  UNL1       -0.2992
     23 C          66.2256   94.4538   10.8204 C.2     1  UNL1        0.2460
     24 O          67.6095   94.4306   10.2421 O.2     1  UNL1       -0.2701
     25 H          64.3210   95.4825   10.7205 H       1  UNL1        0.1498
     26 O          63.8093   91.3174   16.5704 O.3     1  UNL1       -0.4714
     27 C          64.6949   92.4119   17.0878 C.3     1  UNL1        0.2525
@<TRIPOS>BOND
     1    21    22    1
     2    22    23   am
     3    23    24    2
     4    23    19    1
     5    19    20    2
     6    20     1    1
     7     1     2   ar
     8     2     3   ar
     9     3    26    1
    10    26    27    1
    11     3     4   ar
    12     4     5   ar
    13     5     7    1
    14     7     8   ar
    15     8     9   ar
    16     9    10   ar
    17    10    11   ar
    18    11    12   ar
    19    12    17    1
    20    17    18    1
    21    12    13   ar
    22    13    14   ar
    23    14    15   ar
    24    15    16   ar
    25     5     6   ar
    26     6     1   ar
    27    16     7   ar
    28    15    10   ar
    29    22    25    1
@<TRIPOS>MOLECULE
*****
 27 29 0 0 0
SMALL
GASTEIGER

@<TRIPOS>ATOM
      1 C          62.0385   89.8759   10.5747 C.ar    1  UNL1        0.0032
      2 C          62.7411   91.0460   11.1970 C.ar    1  UNL1        0.0369
      3 C          63.6433   90.8381   12.3771 C.ar    1  UNL1        0.1387
      4 C          63.8429   89.4601   12.9350 C.ar    1  UNL1        0.0369
      5 C          63.1403   88.2900   12.3128 C.ar    1  UNL1        0.0030
      6 C          62.2381   88.4979   11.1326 C.ar    1  UNL1        0.0002
      7 C          63.3399   86.9119   12.8706 C.ar    1  UNL1        0.0001
      8 C          64.0640   86.7269   14.1712 C.ar    1  UNL1        0.0000
      9 C          64.2636   85.3489   14.7290 C.ar    1  UNL1        0.0001
     10 C          63.7391   84.1559   13.9863 C.ar    1  UNL1        0.0030
     11 C          63.9387   82.7778   14.5442 C.ar    1  UNL1        0.0369
     12 C          63.4142   81.5848   13.8014 C.ar    1  UNL1        0.1387
     13 C          62.6901   81.7699   12.5008 C.ar    1  UNL1        0.0369
     14 C          62.4905   83.1479   11.9430 C.ar    1  UNL1        0.0031
     15 C          63.0150   84.3409   12.6857 C.ar    1  UNL1        0.0002
     16 C          62.8154   85.7189   12.1279 C.ar    1  UNL1        0.0000
     17 O          63.6138   80.2068   14.3593 O.3     1  UNL1       -0.4714
     18 C          62.7224   79.0833   13.9195 C.3     1  UNL1        0.2525
     19 C          60.4231   88.9156    8.7807 C.2     1  UNL1        0.0577
     20 C          61.1362   90.0838    9.3946 C.2     1  UNL1        0.0048
     21 C          58.8323   90.5046    5.5105 C.3     1  UNL1        0.1109
     22 N          59.7345   90.2967    6.6906 N.am    1  UNL1       -0.2992
     23 C          59.5209   89.1235    7.6005 C.2     1  UNL1        0.2460
     24 O          58.4050   88.1581    7.3303 O.2     1  UNL1       -0.2701
     25 H          60.4669   90.9302    6.8680 H       1  UNL1        0.1498
     26 O          64.3459   92.0082   12.9994 O.3     1  UNL1       -0.4714
     27 C          65.4689   92.6836   12.2694 C.3     1  UNL1        0.2525
@<TRIPOS>BOND
     1    21    22    1
     2    22    23   am
     3    23    24    2
     4    23    19    1
     5    19    20    2
     6    20     1    1
     7     1     2   ar
     8     2     3   ar
     9     3    26    1
    10    26    27    1
    11     3     4   ar
    12     4     5   ar
    13     5     7    1
    14     7     8   ar
    15     8     9   ar
    16     9    10   ar
    17    10    11   ar
    18    11    12   ar
    19    12    17    1
    20    17    18    1
    21    12    13   ar
    22    13    14   ar
    23    14    15   ar
    24    15    16   ar
    25     5     6   ar
    26     6     1   ar
    27    16     7   ar
    28    15    10   ar
    29    22    25    1
@<TRIPOS>MOLECULE
*****
 27 29 0 0 0
SMALL
GASTEIGER

@<TRIPOS>ATOM
      1 C          63.6223   84.8731   14.2985 C.ar    1  UNL1        0.0032
      2 C          63.2030   84.7639   15.7346 C.ar    1  UNL1        0.0369
      3 C          63.1122   85.9961   16.5852 C.ar    1  UNL1        0.1387
      4 C          63.4408   87.3375   15.9997 C.ar    1  UNL1        0.0369
      5 C          63.8602   87.4467   14.5637 C.ar    1  UNL1        0.0030
      6 C          63.9509   86.2145   13.7131 C.ar    1  UNL1        0.0002
      7 C          64.1888   88.7881   13.9782 C.ar    1  UNL1        0.0001
      8 C          63.5037   89.2479   12.7255 C.ar    1  UNL1        0.0000
      9 C          63.8323   90.5892   12.1401 C.ar    1  UNL1        0.0001
     10 C          64.8460   91.4707   12.8073 C.ar    1  UNL1        0.0030
     11 C          65.1747   92.8121   12.2218 C.ar    1  UNL1        0.0369
     12 C          66.1884   93.6937   12.8891 C.ar    1  UNL1        0.1387
     13 C          66.8735   93.2338   14.1418 C.ar    1  UNL1        0.0369
     14 C          66.5449   91.8925   14.7272 C.ar    1  UNL1        0.0031
     15 C          65.5312   91.0109   14.0600 C.ar    1  UNL1        0.0002
     16 C          65.2025   89.6696   14.6454 C.ar    1  UNL1        0.0000
     17 O          66.5170   95.0350   12.3036 O.3     1  UNL1       -0.4714
     18 C          66.5475   95.2166   10.8149 C.3     1  UNL1        0.2525
     19 C          62.5785   82.6599   13.4254 C.2     1  UNL1        0.0577
     20 C          63.7131   83.6410   13.4479 C.2     1  UNL1        0.0048
     21 C          63.1320   80.3100   10.2756 C.3     1  UNL1        0.1109
     22 N          63.0413   81.5421   11.1262 N.am    1  UNL1       -0.2992
     23 C          62.6693   81.4277   12.5748 C.2     1  UNL1        0.2460
     24 O          62.3880   80.0811   13.1728 O.2     1  UNL1       -0.2701
     25 H          63.2258   82.4259   10.7336 H       1  UNL1        0.1498
     26 O          62.6929   85.8869   18.0212 O.3     1  UNL1       -0.4714
     27 C          62.6591   87.1107   18.8878 C.3     1  UNL1        0.2525
@<TRIPOS>BOND
     1    21    22    1
     2    22    23   am
     3    23    24    2
     4    23    19    1
     5    19    20    2
     6    20     1    1
     7     1     2   ar
     8     2     3   ar
     9     3    26    1
    10    26    27    1
    11     3     4   ar
    12     4     5   ar
    13     5     7    1
    14     7     8   ar
    15     8     9   ar
    16     9    10   ar
    17    10    11   ar
    18    11    12   ar
    19    12    17    1
    20    17    18    1
    21    12    13   ar
    22    13    14   ar
    23    14    15   ar
    24    15    16   ar
    25     5     6   ar
    26     6     1   ar
    27    16     7   ar
    28    15    10   ar
    29    22    25    1
@<TRIPOS>MOLECULE
*****
 27 29 0 0 0
SMALL
GASTEIGER

@<TRIPOS>ATOM
      1 C          64.4252   91.6515   12.7307 C.ar    1  UNL1        0.0032
      2 C          64.1083   91.3978   14.1748 C.ar    1  UNL1        0.0369
      3 C          63.1687   90.2915   14.5533 C.ar    1  UNL1        0.1387
      4 C          62.5460   89.4389   13.4877 C.ar    1  UNL1        0.0369
      5 C          62.8630   89.6926   12.0437 C.ar    1  UNL1        0.0030
      6 C          63.8026   90.7989   11.6652 C.ar    1  UNL1        0.0002
      7 C          62.2404   88.8399   10.9781 C.ar    1  UNL1        0.0001
      8 C          60.8376   89.1138   10.5228 C.ar    1  UNL1        0.0000
      9 C          60.2151   88.2612    9.4573 C.ar    1  UNL1        0.0001
     10 C          60.9952   87.1347    8.8470 C.ar    1  UNL1        0.0030
     11 C          60.3726   86.2821    7.7814 C.ar    1  UNL1        0.0369
     12 C          61.1527   85.1556    7.1712 C.ar    1  UNL1        0.1387
     13 C          62.5555   84.8818    7.6265 C.ar    1  UNL1        0.0369
     14 C          63.1781   85.7344    8.6921 C.ar    1  UNL1        0.0031
     15 C          62.3979   86.8608    9.3023 C.ar    1  UNL1        0.0002
     16 C          63.0205   87.7135   10.3679 C.ar    1  UNL1        0.0000
     17 O          60.5302   84.3030    6.1056 O.3     1  UNL1       -0.4714
     18 C          61.3404   83.8770    4.9173 C.3     1  UNL1        0.2525
     19 C          65.5184   93.1519   10.9131 C.2     1  UNL1        0.0577
     20 C          65.3648   92.7578   12.3523 C.2     1  UNL1        0.0048
     21 C          66.9418   96.7919   10.2243 C.3     1  UNL1        0.1109
     22 N          66.0022   95.6856   10.6028 N.am    1  UNL1       -0.2992
     23 C          66.4580   94.2582   10.5346 C.2     1  UNL1        0.2460
     24 O          67.8536   93.9370   10.0879 O.2     1  UNL1       -0.2701
     25 H          65.0863   95.8963   10.8959 H       1  UNL1        0.1498
     26 O          62.8517   90.0378   15.9973 O.3     1  UNL1       -0.4714
     27 C          63.1931   88.7161   16.6191 C.3     1  UNL1        0.2525
@<TRIPOS>BOND
     1    21    22    1
     2    22    23   am
     3    23    24    2
     4    23    19    1
     5    19    20    2
     6    20     1    1
     7     1     2   ar
     8     2     3   ar
     9     3    26    1
    10    26    27    1
    11     3     4   ar
    12     4     5   ar
    13     5     7    1
    14     7     8   ar
    15     8     9   ar
    16     9    10   ar
    17    10    11   ar
    18    11    12   ar
    19    12    17    1
    20    17    18    1
    21    12    13   ar
    22    13    14   ar
    23    14    15   ar
    24    15    16   ar
    25     5     6   ar
    26     6     1   ar
    27    16     7   ar
    28    15    10   ar
    29    22    25    1
@<TRIPOS>MOLECULE
*****
 27 29 0 0 0
SMALL
GASTEIGER

@<TRIPOS>ATOM
      1 C          66.0649   93.7288   12.1871 C.ar    1  UNL1        0.0032
      2 C          66.5528   93.6985   13.6053 C.ar    1  UNL1        0.0369
      3 C          66.0981   92.6100   14.5317 C.ar    1  UNL1        0.1387
      4 C          65.1555   91.5517   14.0400 C.ar    1  UNL1        0.0369
      5 C          64.6676   91.5821   12.6219 C.ar    1  UNL1        0.0030
      6 C          65.1224   92.6706   11.6955 C.ar    1  UNL1        0.0002
      7 C          63.7250   90.5239   12.1302 C.ar    1  UNL1        0.0001
      8 C          63.6618   89.1950   12.8232 C.ar    1  UNL1        0.0000
      9 C          62.7192   88.1369   12.3314 C.ar    1  UNL1        0.0001
     10 C          61.8398   88.4076   11.1468 C.ar    1  UNL1        0.0030
     11 C          60.8972   87.3494   10.6551 C.ar    1  UNL1        0.0369
     12 C          60.0178   87.6201    9.4705 C.ar    1  UNL1        0.1387
     13 C          60.0810   88.9490    8.7775 C.ar    1  UNL1        0.0369
     14 C          61.0236   90.0071    9.2692 C.ar    1  UNL1        0.0031
     15 C          61.9030   89.7364   10.4539 C.ar    1  UNL1        0.0002
     16 C          62.8456   90.7946   10.9456 C.ar    1  UNL1        0.0000
     17 O          59.0752   86.5619    8.9788 O.3     1  UNL1       -0.4714
     18 C          59.0771   86.1698    7.5308 C.3     1  UNL1        0.2525
     19 C          66.3323   94.6687    9.7798 C.2     1  UNL1        0.0577
     20 C          66.5197   94.8173   11.2606 C.2     1  UNL1        0.0048
     21 C          66.7842   96.8546    6.4984 C.3     1  UNL1        0.1109
     22 N          66.3295   95.7661    7.4249 N.am    1  UNL1       -0.2992
     23 C          66.7870   95.7572    8.8533 C.2     1  UNL1        0.2460
     24 O          67.6993   96.8370    9.3554 O.2     1  UNL1       -0.2701
     25 H          65.7308   95.0575    7.0954 H       1  UNL1        0.1498
     26 O          66.5860   92.5796   15.9498 O.3     1  UNL1       -0.4714
     27 C          68.0061   92.1985   16.2464 C.3     1  UNL1        0.2525
@<TRIPOS>BOND
     1    21    22    1
     2    22    23   am
     3    23    24    2
     4    23    19    1
     5    19    20    2
     6    20     1    1
     7     1     2   ar
     8     2     3   ar
     9     3    26    1
    10    26    27    1
    11     3     4   ar
    12     4     5   ar
    13     5     7    1
    14     7     8   ar
    15     8     9   ar
    16     9    10   ar
    17    10    11   ar
    18    11    12   ar
    19    12    17    1
    20    17    18    1
    21    12    13   ar
    22    13    14   ar
    23    14    15   ar
    24    15    16   ar
    25     5     6   ar
    26     6     1   ar
    27    16     7   ar
    28    15    10   ar
    29    22    25    1
