@<TRIPOS>MOLECULE
*****
 30 32 0 0 0
SMALL
GASTEIGER

@<TRIPOS>ATOM
      1 O          59.9329   87.9682   11.5852 O.2     1  UNL1       -0.2732
      2 C          61.2083   88.7293   11.3753 C.2     1  UNL1        0.2430
      3 N          62.4405   88.0134   10.9072 N.am    1  UNL1       -0.2972
      4 H          63.2776   88.5130   10.7694 H       1  UNL1        0.1500
      5 C          61.2515   90.2062   11.6335 C.3     1  UNL1        0.1759
      6 N          62.5540   90.8717   11.9663 N.am    1  UNL1       -0.2931
      7 C          63.1773   90.6675   13.3153 C.2     1  UNL1        0.2462
      8 O          62.4982   89.7980   14.3315 O.2     1  UNL1       -0.2701
      9 H          62.9998   91.4424   11.2994 H       1  UNL1        0.1502
     10 C          64.4799   91.3330   13.6481 C.ar    1  UNL1        0.0535
     11 C          65.2469   92.0561   12.5810 C.ar    1  UNL1        0.0068
     12 C          66.5493   92.7214   12.9139 C.ar    1  UNL1        0.0298
     13 C          67.0848   92.6637   14.3139 C.ar    1  UNL1        0.1401
     14 F          68.3873   93.3292   14.6467 F       1  UNL1       -0.2042
     15 C          66.3178   91.9406   15.3810 C.ar    1  UNL1        0.0298
     16 C          65.0153   91.2753   15.0481 C.ar    1  UNL1        0.0068
     17 C          62.3973   86.5364   10.6490 C.3     1  UNL1        0.1170
     18 C          62.7363   85.5728   11.7474 C.ar    1  UNL1        0.0005
     19 C          62.4367   84.1122   11.5827 C.ar    1  UNL1       -0.0023
     20 C          62.7756   83.1486   12.6811 C.ar    1  UNL1        0.0006
     21 C          63.4142   83.6455   13.9442 C.ar    1  UNL1        0.0114
     22 C          63.7138   85.1060   14.1089 C.ar    1  UNL1        0.0574
     23 CL         64.3523   85.6029   15.3719 Cl      1  UNL1       -0.0823
     24 C          63.3748   86.0697   13.0104 C.ar    1  UNL1        0.0090
     25 C          62.0152   86.0231    9.2924 C.ar    1  UNL1       -0.0003
     26 C          63.0311   85.3171    8.4441 C.ar    1  UNL1       -0.0024
     27 C          62.6490   84.8037    7.0874 C.ar    1  UNL1       -0.0003
     28 C          61.2510   84.9963    6.5791 C.ar    1  UNL1       -0.0000
     29 C          60.2351   85.7024    7.4274 C.ar    1  UNL1       -0.0003
     30 C          60.6172   86.2157    8.7840 C.ar    1  UNL1       -0.0024
@<TRIPOS>BOND
     1     1     2    2
     2     2     5    1
     3     5     6    1
     4     6     7   am
     5     7     8    2
     6     7    10    1
     7    10    11   ar
     8    11    12   ar
     9    12    13   ar
    10    13    14    1
    11    13    15   ar
    12    15    16   ar
    13     2     3   am
    14     3    17    1
    15    17    25    1
    16    25    26   ar
    17    26    27   ar
    18    27    28   ar
    19    28    29   ar
    20    29    30   ar
    21    17    18    1
    22    18    19   ar
    23    19    20   ar
    24    20    21   ar
    25    21    22   ar
    26    22    23    1
    27    22    24   ar
    28    16    10   ar
    29    30    25   ar
    30    24    18   ar
    31     6     9    1
    32     3     4    1
@<TRIPOS>MOLECULE
*****
 30 32 0 0 0
SMALL
GASTEIGER

@<TRIPOS>ATOM
      1 O          59.9617   88.0280   11.5473 O.2     1  UNL1       -0.2732
      2 C          61.2714   88.7482   11.4205 C.2     1  UNL1        0.2430
      3 N          62.5052   87.9958   11.0185 N.am    1  UNL1       -0.2972
      4 H          63.3648   88.4685   10.9352 H       1  UNL1        0.1500
      5 C          61.3473   90.2207   11.6957 C.3     1  UNL1        0.1759
      6 N          62.6707   90.8606   11.9948 N.am    1  UNL1       -0.2931
      7 C          63.3012   90.6840   13.3442 C.2     1  UNL1        0.2462
      8 O          62.6086   89.8675   14.3947 O.2     1  UNL1       -0.2701
      9 H          63.1253   91.3966   11.3053 H       1  UNL1        0.1502
     10 C          64.6246   91.3239   13.6433 C.ar    1  UNL1        0.0535
     11 C          65.2294   91.1926   15.0096 C.ar    1  UNL1        0.0068
     12 C          66.5527   91.8325   15.3086 C.ar    1  UNL1        0.0298
     13 C          67.2711   92.6037   14.2413 C.ar    1  UNL1        0.1401
     14 F          68.5945   93.2436   14.5404 F       1  UNL1       -0.2042
     15 C          66.6663   92.7350   12.8750 C.ar    1  UNL1        0.0298
     16 C          65.3430   92.0951   12.5760 C.ar    1  UNL1        0.0068
     17 C          62.4293   86.5232   10.7432 C.3     1  UNL1        0.1170
     18 C          62.7466   85.5397   11.8305 C.ar    1  UNL1        0.0005
     19 C          63.3786   86.0107   13.1068 C.ar    1  UNL1       -0.0023
     20 C          63.6958   85.0272   14.1941 C.ar    1  UNL1        0.0006
     21 C          63.3811   83.5728   14.0050 C.ar    1  UNL1        0.0114
     22 C          62.7491   83.1019   12.7288 C.ar    1  UNL1        0.0574
     23 CL         62.4344   81.6475   12.5398 Cl      1  UNL1       -0.0823
     24 C          62.4319   84.0854   11.6415 C.ar    1  UNL1        0.0090
     25 C          62.0363   86.0341    9.3808 C.ar    1  UNL1       -0.0003
     26 C          60.6369   86.2443    8.8835 C.ar    1  UNL1       -0.0024
     27 C          60.2437   85.7552    7.5210 C.ar    1  UNL1       -0.0003
     28 C          61.2501   85.0559    6.6559 C.ar    1  UNL1       -0.0000
     29 C          62.6495   84.8458    7.1533 C.ar    1  UNL1       -0.0003
     30 C          63.0426   85.3349    8.5158 C.ar    1  UNL1       -0.0024
@<TRIPOS>BOND
     1     1     2    2
     2     2     5    1
     3     5     6    1
     4     6     7   am
     5     7     8    2
     6     7    10    1
     7    10    11   ar
     8    11    12   ar
     9    12    13   ar
    10    13    14    1
    11    13    15   ar
    12    15    16   ar
    13     2     3   am
    14     3    17    1
    15    17    25    1
    16    25    26   ar
    17    26    27   ar
    18    27    28   ar
    19    28    29   ar
    20    29    30   ar
    21    17    18    1
    22    18    19   ar
    23    19    20   ar
    24    20    21   ar
    25    21    22   ar
    26    22    23    1
    27    22    24   ar
    28    16    10   ar
    29    30    25   ar
    30    24    18   ar
    31     6     9    1
    32     3     4    1
@<TRIPOS>MOLECULE
*****
 30 32 0 0 0
SMALL
GASTEIGER

@<TRIPOS>ATOM
      1 O          62.7889   88.5966    9.6949 O.2     1  UNL1       -0.2732
      2 C          62.4767   88.7410   11.1549 C.2     1  UNL1        0.2430
      3 N          62.2770   87.5203   12.0035 N.am    1  UNL1       -0.2972
      4 H          62.0721   87.6151   12.9618 H       1  UNL1        0.1500
      5 C          62.3642   90.1060   11.7664 C.3     1  UNL1        0.1759
      6 N          63.5824   90.7809   12.3237 N.am    1  UNL1       -0.2931
      7 C          63.8494   90.7474   13.7994 C.2     1  UNL1        0.2462
      8 O          62.8983   90.0389   14.7177 O.2     1  UNL1       -0.2701
      9 H          64.2067   91.2459   11.7210 H       1  UNL1        0.1502
     10 C          65.0676   91.4223   14.3567 C.ar    1  UNL1        0.0535
     11 C          65.0763   91.8990   15.7789 C.ar    1  UNL1        0.0068
     12 C          66.2945   92.5739   16.3361 C.ar    1  UNL1        0.0298
     13 C          67.5039   92.7721   15.4712 C.ar    1  UNL1        0.1401
     14 F          68.7221   93.4470   16.0286 F       1  UNL1       -0.2042
     15 C          67.4952   92.2953   14.0491 C.ar    1  UNL1        0.0298
     16 C          66.2770   91.6205   13.4918 C.ar    1  UNL1        0.0068
     17 C          62.3895   86.1552   11.3920 C.3     1  UNL1        0.1170
     18 C          61.9882   85.9380    9.9631 C.ar    1  UNL1        0.0005
     19 C          62.9441   85.2898    9.0059 C.ar    1  UNL1       -0.0023
     20 C          62.5428   85.0726    7.5770 C.ar    1  UNL1        0.0006
     21 C          61.1856   85.5038    7.1053 C.ar    1  UNL1        0.0114
     22 C          60.2299   86.1520    8.0625 C.ar    1  UNL1        0.0574
     23 CL         58.8729   86.5831    7.5908 Cl      1  UNL1       -0.0823
     24 C          60.6312   86.3692    9.4914 C.ar    1  UNL1        0.0090
     25 C          62.9033   85.0073   12.2095 C.ar    1  UNL1       -0.0003
     26 C          62.6294   83.5972   11.7776 C.ar    1  UNL1       -0.0024
     27 C          63.1432   82.4492   12.5951 C.ar    1  UNL1       -0.0003
     28 C          63.9309   82.7113   13.8444 C.ar    1  UNL1       -0.0000
     29 C          64.2049   84.1215   14.2762 C.ar    1  UNL1       -0.0003
     30 C          63.6911   85.2695   13.4588 C.ar    1  UNL1       -0.0024
@<TRIPOS>BOND
     1     1     2    2
     2     2     5    1
     3     5     6    1
     4     6     7   am
     5     7     8    2
     6     7    10    1
     7    10    11   ar
     8    11    12   ar
     9    12    13   ar
    10    13    14    1
    11    13    15   ar
    12    15    16   ar
    13     2     3   am
    14     3    17    1
    15    17    25    1
    16    25    26   ar
    17    26    27   ar
    18    27    28   ar
    19    28    29   ar
    20    29    30   ar
    21    17    18    1
    22    18    19   ar
    23    19    20   ar
    24    20    21   ar
    25    21    22   ar
    26    22    23    1
    27    22    24   ar
    28    16    10   ar
    29    30    25   ar
    30    24    18   ar
    31     6     9    1
    32     3     4    1
@<TRIPOS>MOLECULE
*****
 30 32 0 0 0
SMALL
GASTEIGER

@<TRIPOS>ATOM
      1 O          62.7530   89.2955    9.7463 O.2     1  UNL1       -0.2732
      2 C          62.4279   89.3057   11.2106 C.2     1  UNL1        0.2430
      3 N          62.0699   88.0271   11.9084 N.am    1  UNL1       -0.2972
      4 H          61.8565   88.0339   12.8694 H       1  UNL1        0.1500
      5 C          62.4609   90.5946   11.9772 C.3     1  UNL1        0.1759
      6 N          63.5473   90.8424   12.9814 N.am    1  UNL1       -0.2931
      7 C          64.7428   91.6664   12.6051 C.2     1  UNL1        0.2462
      8 O          64.8521   92.2427   11.2245 O.2     1  UNL1       -0.2701
      9 H          63.4757   90.4642   13.8875 H       1  UNL1        0.1502
     10 C          65.8292   91.9142   13.6093 C.ar    1  UNL1        0.0535
     11 C          67.2661   91.8977   13.1792 C.ar    1  UNL1        0.0068
     12 C          68.3524   92.1455   14.1835 C.ar    1  UNL1        0.0298
     13 C          68.0018   92.4098   15.6178 C.ar    1  UNL1        0.1401
     14 F          69.0882   92.6576   16.6220 F       1  UNL1       -0.2042
     15 C          66.5649   92.4263   16.0478 C.ar    1  UNL1        0.0298
     16 C          65.4786   92.1785   15.0436 C.ar    1  UNL1        0.0068
     17 C          62.0368   86.7382   11.1418 C.3     1  UNL1        0.1170
     18 C          62.8020   85.5487   11.6414 C.ar    1  UNL1        0.0005
     19 C          63.0246   84.3685   10.7426 C.ar    1  UNL1       -0.0023
     20 C          63.7898   83.1791   11.2421 C.ar    1  UNL1        0.0006
     21 C          64.3325   83.1697   12.6406 C.ar    1  UNL1        0.0114
     22 C          64.1099   84.3498   13.5393 C.ar    1  UNL1        0.0574
     23 CL         64.6526   84.3404   14.9376 Cl      1  UNL1       -0.0823
     24 C          63.3447   85.5393   13.0397 C.ar    1  UNL1        0.0090
     25 C          61.2387   86.6387    9.8757 C.ar    1  UNL1       -0.0003
     26 C          59.8766   87.2621    9.7970 C.ar    1  UNL1       -0.0024
     27 C          59.0784   87.1627    8.5308 C.ar    1  UNL1       -0.0003
     28 C          59.6422   86.4399    7.3436 C.ar    1  UNL1       -0.0000
     29 C          61.0043   85.8165    7.4224 C.ar    1  UNL1       -0.0003
     30 C          61.8025   85.9159    8.6885 C.ar    1  UNL1       -0.0024
@<TRIPOS>BOND
     1     1     2    2
     2     2     5    1
     3     5     6    1
     4     6     7   am
     5     7     8    2
     6     7    10    1
     7    10    11   ar
     8    11    12   ar
     9    12    13   ar
    10    13    14    1
    11    13    15   ar
    12    15    16   ar
    13     2     3   am
    14     3    17    1
    15    17    25    1
    16    25    26   ar
    17    26    27   ar
    18    27    28   ar
    19    28    29   ar
    20    29    30   ar
    21    17    18    1
    22    18    19   ar
    23    19    20   ar
    24    20    21   ar
    25    21    22   ar
    26    22    23    1
    27    22    24   ar
    28    16    10   ar
    29    30    25   ar
    30    24    18   ar
    31     6     9    1
    32     3     4    1
@<TRIPOS>MOLECULE
*****
 30 32 0 0 0
SMALL
GASTEIGER

@<TRIPOS>ATOM
      1 O          62.2519   89.7162   14.4445 O.2     1  UNL1       -0.2732
      2 C          63.4787   90.0299   13.6405 C.2     1  UNL1        0.2430
      3 N          63.9223   89.0960   12.5537 N.am    1  UNL1       -0.2972
      4 H          64.7275   89.3019   12.0260 H       1  UNL1        0.1500
      5 C          64.2621   91.2774   13.9232 C.3     1  UNL1        0.1759
      6 N          64.7063   92.1566   12.7919 N.am    1  UNL1       -0.2931
      7 C          66.1679   92.4064   12.5654 C.2     1  UNL1        0.2462
      8 O          67.1853   91.7769   13.4702 O.2     1  UNL1       -0.2701
      9 H          64.0385   92.5698   12.1980 H       1  UNL1        0.1502
     10 C          66.6121   93.2856   11.4341 C.ar    1  UNL1        0.0535
     11 C          66.2776   94.7477   11.4447 C.ar    1  UNL1        0.0068
     12 C          66.7218   95.6269   10.3134 C.ar    1  UNL1        0.0298
     13 C          67.5006   95.0438    9.1717 C.ar    1  UNL1        0.1401
     14 F          67.9448   95.9230    8.0404 F       1  UNL1       -0.2042
     15 C          67.8351   93.5817    9.1611 C.ar    1  UNL1        0.0298
     16 C          67.3909   92.7026   10.2924 C.ar    1  UNL1        0.0068
     17 C          63.1389   87.8483   12.2709 C.3     1  UNL1        0.1170
     18 C          63.3912   86.6064   13.0734 C.ar    1  UNL1        0.0005
     19 C          64.1807   86.6835   14.3465 C.ar    1  UNL1       -0.0023
     20 C          64.4329   85.4416   15.1490 C.ar    1  UNL1        0.0006
     21 C          63.8956   84.1225   14.6784 C.ar    1  UNL1        0.0114
     22 C          63.1061   84.0455   13.4054 C.ar    1  UNL1        0.0574
     23 CL         62.5688   82.7264   12.9348 Cl      1  UNL1       -0.0823
     24 C          62.8539   85.2874   12.6029 C.ar    1  UNL1        0.0090
     25 C          62.1034   87.8427   11.1858 C.ar    1  UNL1       -0.0003
     26 C          62.2118   86.8680   10.0508 C.ar    1  UNL1       -0.0024
     27 C          61.1763   86.8623    8.9655 C.ar    1  UNL1       -0.0003
     28 C          60.0324   87.8313    9.0153 C.ar    1  UNL1       -0.0000
     29 C          59.9241   88.8061   10.1503 C.ar    1  UNL1       -0.0003
     30 C          60.9596   88.8117   11.2355 C.ar    1  UNL1       -0.0024
@<TRIPOS>BOND
     1     1     2    2
     2     2     5    1
     3     5     6    1
     4     6     7   am
     5     7     8    2
     6     7    10    1
     7    10    11   ar
     8    11    12   ar
     9    12    13   ar
    10    13    14    1
    11    13    15   ar
    12    15    16   ar
    13     2     3   am
    14     3    17    1
    15    17    25    1
    16    25    26   ar
    17    26    27   ar
    18    27    28   ar
    19    28    29   ar
    20    29    30   ar
    21    17    18    1
    22    18    19   ar
    23    19    20   ar
    24    20    21   ar
    25    21    22   ar
    26    22    23    1
    27    22    24   ar
    28    16    10   ar
    29    30    25   ar
    30    24    18   ar
    31     6     9    1
    32     3     4    1
@<TRIPOS>MOLECULE
*****
 30 32 0 0 0
SMALL
GASTEIGER

@<TRIPOS>ATOM
      1 O          63.4914   87.4994   12.5232 O.2     1  UNL1       -0.2732
      2 C          64.0626   87.5981   13.9067 C.2     1  UNL1        0.2430
      3 N          64.4313   88.9377   14.4720 N.am    1  UNL1       -0.2972
      4 H          64.8062   89.0025   15.3800 H       1  UNL1        0.1500
      5 C          64.2649   86.3574   14.7249 C.3     1  UNL1        0.1759
      6 N          64.1908   85.0085   14.0727 N.am    1  UNL1       -0.2931
      7 C          62.9095   84.2294   14.1047 C.2     1  UNL1        0.2462
      8 O          61.7022   84.7990   14.7887 O.2     1  UNL1       -0.2701
      9 H          64.9832   84.6347   13.6238 H       1  UNL1        0.1502
     10 C          62.8354   82.8805   13.4525 C.ar    1  UNL1        0.0535
     11 C          62.4876   81.6710   14.2686 C.ar    1  UNL1        0.0068
     12 C          62.4135   80.3223   13.6164 C.ar    1  UNL1        0.0298
     13 C          62.6873   80.1830   12.1482 C.ar    1  UNL1        0.1401
     14 F          62.6133   78.8342   11.4961 F       1  UNL1       -0.2042
     15 C          63.0352   81.3926   11.3322 C.ar    1  UNL1        0.0298
     16 C          63.1093   82.7413   11.9843 C.ar    1  UNL1        0.0068
     17 C          64.2290   90.1785   13.6538 C.3     1  UNL1        0.1170
     18 C          63.1582   90.2184   12.6041 C.ar    1  UNL1        0.0005
     19 C          63.5069   90.5787   11.1903 C.ar    1  UNL1       -0.0023
     20 C          62.4361   90.6185   10.1406 C.ar    1  UNL1        0.0006
     21 C          61.0166   90.2981   10.5047 C.ar    1  UNL1        0.0114
     22 C          60.6680   89.9379   11.9184 C.ar    1  UNL1        0.0574
     23 CL         59.2486   89.6175   12.2825 Cl      1  UNL1       -0.0823
     24 C          61.7388   89.8980   12.9681 C.ar    1  UNL1        0.0090
     25 C          65.0974   91.3794   13.8853 C.ar    1  UNL1       -0.0003
     26 C          65.3982   92.3168   12.7535 C.ar    1  UNL1       -0.0024
     27 C          66.2667   93.5178   12.9850 C.ar    1  UNL1       -0.0003
     28 C          66.8342   93.7813   14.3482 C.ar    1  UNL1       -0.0000
     29 C          66.5334   92.8439   15.4800 C.ar    1  UNL1       -0.0003
     30 C          65.6649   91.6430   15.2485 C.ar    1  UNL1       -0.0024
@<TRIPOS>BOND
     1     1     2    2
     2     2     5    1
     3     5     6    1
     4     6     7   am
     5     7     8    2
     6     7    10    1
     7    10    11   ar
     8    11    12   ar
     9    12    13   ar
    10    13    14    1
    11    13    15   ar
    12    15    16   ar
    13     2     3   am
    14     3    17    1
    15    17    25    1
    16    25    26   ar
    17    26    27   ar
    18    27    28   ar
    19    28    29   ar
    20    29    30   ar
    21    17    18    1
    22    18    19   ar
    23    19    20   ar
    24    20    21   ar
    25    21    22   ar
    26    22    23    1
    27    22    24   ar
    28    16    10   ar
    29    30    25   ar
    30    24    18   ar
    31     6     9    1
    32     3     4    1
@<TRIPOS>MOLECULE
*****
 30 32 0 0 0
SMALL
GASTEIGER

@<TRIPOS>ATOM
      1 O          63.1496   87.3921   12.3160 O.2     1  UNL1       -0.2732
      2 C          63.8610   87.4899   13.6329 C.2     1  UNL1        0.2430
      3 N          64.3133   88.8258   14.1436 N.am    1  UNL1       -0.2972
      4 H          64.7802   88.8900   15.0079 H       1  UNL1        0.1500
      5 C          64.1201   86.2519   14.4392 C.3     1  UNL1        0.1759
      6 N          64.0580   84.9037   13.7844 N.am    1  UNL1       -0.2931
      7 C          62.8298   84.0551   13.9299 C.2     1  UNL1        0.2462
      8 O          61.6636   84.5546   14.7303 O.2     1  UNL1       -0.2701
      9 H          64.8234   84.5759   13.2591 H       1  UNL1        0.1502
     10 C          62.7677   82.7069   13.2751 C.ar    1  UNL1        0.0535
     11 C          62.3083   81.5131   14.0585 C.ar    1  UNL1        0.0068
     12 C          62.2463   80.1651   13.4037 C.ar    1  UNL1        0.0298
     13 C          62.6436   80.0108   11.9655 C.ar    1  UNL1        0.1401
     14 F          62.5815   78.6627   11.3107 F       1  UNL1       -0.2042
     15 C          63.1029   81.2046   11.1822 C.ar    1  UNL1        0.0298
     16 C          63.1650   82.5527   11.8370 C.ar    1  UNL1        0.0068
     17 C          64.0542   90.0639   13.3373 C.3     1  UNL1        0.1170
     18 C          64.9273   91.2707   13.5145 C.ar    1  UNL1        0.0005
     19 C          65.1092   92.2376   12.3823 C.ar    1  UNL1       -0.0023
     20 C          65.9823   93.4444   12.5595 C.ar    1  UNL1        0.0006
     21 C          66.6735   93.6842   13.8690 C.ar    1  UNL1        0.0114
     22 C          66.4916   92.7173   15.0012 C.ar    1  UNL1        0.0574
     23 CL         67.1828   92.9571   16.3106 Cl      1  UNL1       -0.0823
     24 C          65.6185   91.5105   14.8240 C.ar    1  UNL1        0.0090
     25 C          62.9220   90.0952   12.3539 C.ar    1  UNL1       -0.0003
     26 C          63.2080   90.1627   10.8830 C.ar    1  UNL1       -0.0024
     27 C          62.0758   90.1940    9.8994 C.ar    1  UNL1       -0.0003
     28 C          60.6577   90.1578   10.3869 C.ar    1  UNL1       -0.0000
     29 C          60.3718   90.0903   11.8579 C.ar    1  UNL1       -0.0003
     30 C          61.5039   90.0590   12.8413 C.ar    1  UNL1       -0.0024
@<TRIPOS>BOND
     1     1     2    2
     2     2     5    1
     3     5     6    1
     4     6     7   am
     5     7     8    2
     6     7    10    1
     7    10    11   ar
     8    11    12   ar
     9    12    13   ar
    10    13    14    1
    11    13    15   ar
    12    15    16   ar
    13     2     3   am
    14     3    17    1
    15    17    25    1
    16    25    26   ar
    17    26    27   ar
    18    27    28   ar
    19    28    29   ar
    20    29    30   ar
    21    17    18    1
    22    18    19   ar
    23    19    20   ar
    24    20    21   ar
    25    21    22   ar
    26    22    23    1
    27    22    24   ar
    28    16    10   ar
    29    30    25   ar
    30    24    18   ar
    31     6     9    1
    32     3     4    1
@<TRIPOS>MOLECULE
*****
 30 32 0 0 0
SMALL
GASTEIGER

@<TRIPOS>ATOM
      1 O          61.8906   86.1463    8.1911 O.2     1  UNL1       -0.2732
      2 C          60.6133   86.5095    8.8886 C.2     1  UNL1        0.2430
      3 N          60.6118   86.7627   10.3670 N.am    1  UNL1       -0.2972
      4 H          59.7734   87.0011   10.8248 H       1  UNL1        0.1500
      5 C          59.3374   86.6195    8.1076 C.3     1  UNL1        0.1759
      6 N          59.2175   87.6297    7.0052 N.am    1  UNL1       -0.2931
      7 C          59.5305   89.0721    7.2725 C.2     1  UNL1        0.2462
      8 O          59.9634   89.5043    8.6420 O.2     1  UNL1       -0.2701
      9 H          58.9333   87.3460    6.1063 H       1  UNL1        0.1502
     10 C          59.4106   90.0823    6.1701 C.ar    1  UNL1        0.0535
     11 C          60.6407   90.5756    5.4677 C.ar    1  UNL1        0.0068
     12 C          60.5207   91.5857    4.3654 C.ar    1  UNL1        0.0298
     13 C          59.1706   92.1027    3.9655 C.ar    1  UNL1        0.1401
     14 F          59.0507   93.1129    2.8631 F       1  UNL1       -0.2042
     15 C          57.9404   91.6094    4.6678 C.ar    1  UNL1        0.0298
     16 C          58.0604   90.5992    5.7701 C.ar    1  UNL1        0.0068
     17 C          61.8877   86.6528   11.1481 C.3     1  UNL1        0.1170
     18 C          62.4905   85.3052   11.4141 C.ar    1  UNL1        0.0005
     19 C          63.2376   84.5901   10.3276 C.ar    1  UNL1       -0.0023
     20 C          63.8404   83.2425   10.5936 C.ar    1  UNL1        0.0006
     21 C          63.6960   82.6101   11.9461 C.ar    1  UNL1        0.0114
     22 C          62.9488   83.3252   13.0325 C.ar    1  UNL1        0.0574
     23 CL         62.8045   82.6928   14.3850 Cl      1  UNL1       -0.0823
     24 C          62.3461   84.6728   12.7665 C.ar    1  UNL1        0.0090
     25 C          62.5608   87.8904   11.6631 C.ar    1  UNL1       -0.0003
     26 C          63.3548   87.8383   12.9346 C.ar    1  UNL1       -0.0024
     27 C          64.0280   89.0759   13.4497 C.ar    1  UNL1       -0.0003
     28 C          63.9071   90.3656   12.6932 C.ar    1  UNL1       -0.0000
     29 C          63.1130   90.4175   11.4216 C.ar    1  UNL1       -0.0003
     30 C          62.4399   89.1800   10.9066 C.ar    1  UNL1       -0.0024
@<TRIPOS>BOND
     1     1     2    2
     2     2     5    1
     3     5     6    1
     4     6     7   am
     5     7     8    2
     6     7    10    1
     7    10    11   ar
     8    11    12   ar
     9    12    13   ar
    10    13    14    1
    11    13    15   ar
    12    15    16   ar
    13     2     3   am
    14     3    17    1
    15    17    25    1
    16    25    26   ar
    17    26    27   ar
    18    27    28   ar
    19    28    29   ar
    20    29    30   ar
    21    17    18    1
    22    18    19   ar
    23    19    20   ar
    24    20    21   ar
    25    21    22   ar
    26    22    23    1
    27    22    24   ar
    28    16    10   ar
    29    30    25   ar
    30    24    18   ar
    31     6     9    1
    32     3     4    1
@<TRIPOS>MOLECULE
*****
 30 32 0 0 0
SMALL
GASTEIGER

@<TRIPOS>ATOM
      1 O          61.9270   86.2284    8.0653 O.2     1  UNL1       -0.2732
      2 C          60.6348   86.5452    8.7581 C.2     1  UNL1        0.2430
      3 N          60.6123   86.7579   10.2427 N.am    1  UNL1       -0.2972
      4 H          59.7642   86.9658   10.6974 H       1  UNL1        0.1500
      5 C          59.3651   86.6491    7.9663 C.3     1  UNL1        0.1759
      6 N          59.2446   87.6687    6.8726 N.am    1  UNL1       -0.2931
      7 C          59.5391   89.1117    7.1567 C.2     1  UNL1        0.2462
      8 O          59.9541   89.5354    8.5345 O.2     1  UNL1       -0.2701
      9 H          58.9723   87.3906    5.9683 H       1  UNL1        0.1502
     10 C          59.4186   90.1312    6.0629 C.ar    1  UNL1        0.0535
     11 C          58.0739   90.6902    5.7035 C.ar    1  UNL1        0.0068
     12 C          57.9535   91.7097    4.6098 C.ar    1  UNL1        0.0298
     13 C          59.1778   92.1702    3.8756 C.ar    1  UNL1        0.1401
     14 F          59.0573   93.1897    2.7819 F       1  UNL1       -0.2042
     15 C          60.5225   91.6112    4.2350 C.ar    1  UNL1        0.0298
     16 C          60.6429   90.5917    5.3287 C.ar    1  UNL1        0.0068
     17 C          61.8821   86.6540   11.0347 C.3     1  UNL1        0.1170
     18 C          62.5420   87.8943   11.5601 C.ar    1  UNL1        0.0005
     19 C          62.4772   89.1694   10.7725 C.ar    1  UNL1       -0.0023
     20 C          63.1371   90.4097   11.2979 C.ar    1  UNL1        0.0006
     21 C          63.8618   90.3750   12.6109 C.ar    1  UNL1        0.0114
     22 C          63.9265   89.1000   13.3983 C.ar    1  UNL1        0.0574
     23 CL         64.6512   89.0654   14.7112 Cl      1  UNL1       -0.0823
     24 C          63.2666   87.8597   12.8729 C.ar    1  UNL1        0.0090
     25 C          62.4918   85.3097   11.3011 C.ar    1  UNL1       -0.0003
     26 C          62.3554   84.6794   12.6554 C.ar    1  UNL1       -0.0024
     27 C          62.9652   83.3351   12.9219 C.ar    1  UNL1       -0.0003
     28 C          63.7114   82.6210   11.8341 C.ar    1  UNL1       -0.0000
     29 C          63.8478   83.2514   10.4798 C.ar    1  UNL1       -0.0003
     30 C          63.2380   84.5956   10.2133 C.ar    1  UNL1       -0.0024
@<TRIPOS>BOND
     1     1     2    2
     2     2     5    1
     3     5     6    1
     4     6     7   am
     5     7     8    2
     6     7    10    1
     7    10    11   ar
     8    11    12   ar
     9    12    13   ar
    10    13    14    1
    11    13    15   ar
    12    15    16   ar
    13     2     3   am
    14     3    17    1
    15    17    25    1
    16    25    26   ar
    17    26    27   ar
    18    27    28   ar
    19    28    29   ar
    20    29    30   ar
    21    17    18    1
    22    18    19   ar
    23    19    20   ar
    24    20    21   ar
    25    21    22   ar
    26    22    23    1
    27    22    24   ar
    28    16    10   ar
    29    30    25   ar
    30    24    18   ar
    31     6     9    1
    32     3     4    1
