@<TRIPOS>MOLECULE
*****
 30 33 0 0 0
SMALL
GASTEIGER

@<TRIPOS>ATOM
      1 C          62.5475   89.9858   12.1563 C.ar    1  UNL1        0.2218
      2 N          62.3373   90.7199   10.8652 N.ar    1  UNL1       -0.2119
      3 C          61.7533   90.0053    9.6827 C.ar    1  UNL1        0.1047
      4 C          61.3795   88.5567    9.7913 C.ar    1  UNL1        0.0552
      5 C          61.5897   87.8226   11.0824 C.ar    1  UNL1        0.1367
      6 N          62.1737   88.5372   12.2649 N.ar    1  UNL1       -0.1985
      7 N          63.1315   90.7004   13.3388 N.pl3   1  UNL1       -0.2825
      8 H          62.5965   90.8171   14.1570 H       1  UNL1        0.1551
      9 C          66.3781   92.5583   12.0129 C.ar    1  UNL1        0.1070
     10 C          67.3290   92.3110   13.1463 C.ar    1  UNL1        0.0184
     11 C          66.8807   91.5268   14.3439 C.ar    1  UNL1        0.0026
     12 C          65.4816   90.9900   14.4082 C.ar    1  UNL1        0.0148
     13 C          64.5307   91.2373   13.2747 C.ar    1  UNL1        0.0517
     14 C          64.9790   92.0214   12.0771 C.ar    1  UNL1        0.0330
     15 C          67.2748   94.1264    9.6178 C.3     1  UNL1        0.1816
     16 S          66.8264   93.3424   10.8153 S.O2    1  UNL1        0.0105
     17 O          68.0281   92.4543   10.6838 O.2     1  UNL1       -0.1686
     18 O          65.6247   94.2304   10.9470 O.2     1  UNL1       -0.1686
     19 N          61.2160   86.3740   11.1910 N.pl3   1  UNL1       -0.2947
     20 H          60.2687   86.1134   11.2531 H       1  UNL1        0.1537
     21 C          62.2857   85.3225   11.2051 C.ar    1  UNL1        0.0977
     22 C          62.8767   84.8365    9.9149 C.ar    1  UNL1        0.0742
     23 CL         62.3979   85.4020    8.6106 Cl      1  UNL1       -0.0808
     24 C          63.9462   83.7850    9.9290 C.ar    1  UNL1        0.0160
     25 C          64.4250   83.2195   11.2332 C.ar    1  UNL1        0.0411
     26 C          63.8340   83.7055   12.5234 C.ar    1  UNL1        0.1777
     27 C          62.7644   84.7570   12.5094 C.ar    1  UNL1        0.1905
     28 O          62.3722   85.0383   13.9296 O.3     1  UNL1       -0.4333
     29 C          63.1995   84.1606   14.8214 C.3     1  UNL1        0.4294
     30 O          64.1029   83.3369   13.9523 O.3     1  UNL1       -0.4346
@<TRIPOS>BOND
     1    15    16    1
     2    16    17    2
     3    16    18    2
     4    16     9    1
     5     9    10   ar
     6    10    11   ar
     7    11    12   ar
     8    12    13   ar
     9    13     7    1
    10     7     1    1
    11     1     2   ar
    12     2     3   ar
    13     3     4   ar
    14     4     5   ar
    15     5    19    1
    16    19    21    1
    17    21    22   ar
    18    22    23    1
    19    22    24   ar
    20    24    25   ar
    21    25    26   ar
    22    26    27   ar
    23    27    28    1
    24    28    29    1
    25    29    30    1
    26     5     6   ar
    27    13    14   ar
    28    14     9   ar
    29     6     1   ar
    30    27    21   ar
    31    30    26    1
    32     7     8    1
    33    19    20    1
@<TRIPOS>MOLECULE
*****
 30 33 0 0 0
SMALL
GASTEIGER

@<TRIPOS>ATOM
      1 C          62.9433   87.0044   12.4814 C.ar    1  UNL1        0.2218
      2 N          63.7280   86.3952   13.6053 N.ar    1  UNL1       -0.2119
      3 C          64.3988   87.2773   14.6161 C.ar    1  UNL1        0.1047
      4 C          64.2851   88.7687   14.5030 C.ar    1  UNL1        0.0552
      5 C          63.5004   89.3779   13.3791 C.ar    1  UNL1        0.1367
      6 N          62.8296   88.4958   12.3683 N.ar    1  UNL1       -0.1985
      7 N          62.2725   86.1221   11.4706 N.pl3   1  UNL1       -0.2825
      8 H          61.5198   86.4674   10.9382 H       1  UNL1        0.1551
      9 C          62.8404   82.2377   12.0526 C.ar    1  UNL1        0.1070
     10 C          63.7006   81.8970   10.8720 C.ar    1  UNL1        0.0184
     11 C          64.0848   82.9646    9.8909 C.ar    1  UNL1        0.0026
     12 C          63.6088   84.3730   10.0904 C.ar    1  UNL1        0.0148
     13 C          62.7486   84.7137   11.2711 C.ar    1  UNL1        0.0517
     14 C          62.3644   83.6461   12.2521 C.ar    1  UNL1        0.0330
     15 C          62.0720   80.1025   14.0148 C.3     1  UNL1        0.1816
     16 S          62.4562   81.1700   13.0337 S.O2    1  UNL1        0.0105
     17 O          62.1446   82.2221   14.0565 O.2     1  UNL1       -0.1686
     18 O          62.7678   80.1180   12.0108 O.2     1  UNL1       -0.1686
     19 N          63.3866   90.8693   13.2659 N.pl3   1  UNL1       -0.2947
     20 H          62.5754   91.3267   13.5851 H       1  UNL1        0.1537
     21 C          64.5089   91.6638   12.6663 C.ar    1  UNL1        0.0977
     22 C          64.5199   91.9537   11.1946 C.ar    1  UNL1        0.0742
     23 CL         63.4086   91.4490   10.3225 Cl      1  UNL1       -0.0808
     24 C          65.6420   92.7481   10.5950 C.ar    1  UNL1        0.0160
     25 C          66.7532   93.2527   11.4671 C.ar    1  UNL1        0.0411
     26 C          66.7423   92.9629   12.9388 C.ar    1  UNL1        0.1777
     27 C          65.6201   92.1684   13.5384 C.ar    1  UNL1        0.1905
     28 O          65.8774   92.0408   15.0106 O.3     1  UNL1       -0.4333
     29 C          67.1587   92.7565   15.3209 C.3     1  UNL1        0.4294
     30 O          67.6932   93.3263   14.0405 O.3     1  UNL1       -0.4346
@<TRIPOS>BOND
     1    15    16    1
     2    16    17    2
     3    16    18    2
     4    16     9    1
     5     9    10   ar
     6    10    11   ar
     7    11    12   ar
     8    12    13   ar
     9    13     7    1
    10     7     1    1
    11     1     2   ar
    12     2     3   ar
    13     3     4   ar
    14     4     5   ar
    15     5    19    1
    16    19    21    1
    17    21    22   ar
    18    22    23    1
    19    22    24   ar
    20    24    25   ar
    21    25    26   ar
    22    26    27   ar
    23    27    28    1
    24    28    29    1
    25    29    30    1
    26     5     6   ar
    27    13    14   ar
    28    14     9   ar
    29     6     1   ar
    30    27    21   ar
    31    30    26    1
    32     7     8    1
    33    19    20    1
@<TRIPOS>MOLECULE
*****
 30 33 0 0 0
SMALL
GASTEIGER

@<TRIPOS>ATOM
      1 C          62.3729   89.9390   11.9901 C.ar    1  UNL1        0.2218
      2 N          61.9651   90.6869   10.7555 N.ar    1  UNL1       -0.2119
      3 C          61.2569   89.9705    9.6441 C.ar    1  UNL1        0.1047
      4 C          60.9565   88.5061    9.7673 C.ar    1  UNL1        0.0552
      5 C          61.3642   87.7581   11.0019 C.ar    1  UNL1        0.1367
      6 N          62.0724   88.4746   12.1133 N.ar    1  UNL1       -0.1985
      7 N          63.0811   90.6555   13.1015 N.pl3   1  UNL1       -0.2825
      8 H          62.6954   90.6624   14.0073 H       1  UNL1        0.1551
      9 C          66.6818   92.2273   13.6623 C.ar    1  UNL1        0.1070
     10 C          66.9686   92.7736   12.2951 C.ar    1  UNL1        0.0184
     11 C          65.9597   92.6139   11.1967 C.ar    1  UNL1        0.0026
     12 C          64.6639   91.9079   11.4654 C.ar    1  UNL1        0.0148
     13 C          64.3769   91.3615   12.8327 C.ar    1  UNL1        0.0517
     14 C          65.3859   91.5213   13.9311 C.ar    1  UNL1        0.0330
     15 C          68.6995   92.5468   15.8592 C.3     1  UNL1        0.1816
     16 S          67.6907   92.3870   14.7607 S.O2    1  UNL1        0.0105
     17 O          66.5817   92.4692   15.7674 O.2     1  UNL1       -0.1686
     18 O          68.7997   92.3049   13.7540 O.2     1  UNL1       -0.1686
     19 N          61.0637   86.2938   11.1253 N.pl3   1  UNL1       -0.2947
     20 H          60.1320   85.9881   11.2125 H       1  UNL1        0.1537
     21 C          62.1830   85.2951   11.1157 C.ar    1  UNL1        0.0977
     22 C          62.7920   84.8635    9.8145 C.ar    1  UNL1        0.0742
     23 CL         62.2817   85.4307    8.5229 Cl      1  UNL1       -0.0808
     24 C          63.9111   83.8649    9.8049 C.ar    1  UNL1        0.0160
     25 C          64.4214   83.2978   11.0964 C.ar    1  UNL1        0.0411
     26 C          63.8125   83.7293   12.3975 C.ar    1  UNL1        0.1777
     27 C          62.6932   84.7279   12.4072 C.ar    1  UNL1        0.1905
     28 O          62.2932   84.9621   13.8337 O.3     1  UNL1       -0.4333
     29 C          63.1652   84.1081   14.7057 C.3     1  UNL1        0.4294
     30 O          64.1041   83.3462   13.8181 O.3     1  UNL1       -0.4346
@<TRIPOS>BOND
     1    15    16    1
     2    16    17    2
     3    16    18    2
     4    16     9    1
     5     9    10   ar
     6    10    11   ar
     7    11    12   ar
     8    12    13   ar
     9    13     7    1
    10     7     1    1
    11     1     2   ar
    12     2     3   ar
    13     3     4   ar
    14     4     5   ar
    15     5    19    1
    16    19    21    1
    17    21    22   ar
    18    22    23    1
    19    22    24   ar
    20    24    25   ar
    21    25    26   ar
    22    26    27   ar
    23    27    28    1
    24    28    29    1
    25    29    30    1
    26     5     6   ar
    27    13    14   ar
    28    14     9   ar
    29     6     1   ar
    30    27    21   ar
    31    30    26    1
    32     7     8    1
    33    19    20    1
@<TRIPOS>MOLECULE
*****
 30 33 0 0 0
SMALL
GASTEIGER

@<TRIPOS>ATOM
      1 C          62.1803   88.6594   11.2365 C.ar    1  UNL1        0.2218
      2 N          62.1970   90.0340   10.6362 N.ar    1  UNL1       -0.2119
      3 C          62.9974   91.1252   11.2832 C.ar    1  UNL1        0.1047
      4 C          63.7811   90.8419   12.5304 C.ar    1  UNL1        0.0552
      5 C          63.7644   89.4674   13.1306 C.ar    1  UNL1        0.1367
      6 N          62.9640   88.3761   12.4837 N.ar    1  UNL1       -0.1985
      7 N          61.3799   87.5682   10.5895 N.pl3   1  UNL1       -0.2825
      8 H          60.4013   87.6506   10.5199 H       1  UNL1        0.1551
      9 C          63.1651   84.0271   10.4350 C.ar    1  UNL1        0.1070
     10 C          63.4516   83.9180    8.9667 C.ar    1  UNL1        0.0184
     11 C          63.0476   85.0256    8.0393 C.ar    1  UNL1        0.0026
     12 C          62.3571   86.2423    8.5802 C.ar    1  UNL1        0.0148
     13 C          62.0705   86.3515   10.0486 C.ar    1  UNL1        0.0517
     14 C          62.4745   85.2439   10.9759 C.ar    1  UNL1        0.0330
     15 C          63.9732   81.8119   12.2896 C.3     1  UNL1        0.1816
     16 S          63.5691   82.9195   11.3623 S.O2    1  UNL1        0.0105
     17 O          64.6918   82.5544   10.4369 O.2     1  UNL1       -0.1686
     18 O          62.4464   83.2847   12.2876 O.2     1  UNL1       -0.1686
     19 N          64.5481   89.1840   14.3778 N.pl3   1  UNL1       -0.2947
     20 H          65.4129   89.6300   14.5278 H       1  UNL1        0.1537
     21 C          64.0142   88.2211   15.3966 C.ar    1  UNL1        0.0977
     22 C          63.2851   88.7336   16.6032 C.ar    1  UNL1        0.0742
     23 CL         63.0901   90.2091   16.7910 Cl      1  UNL1       -0.0808
     24 C          62.7512   87.7709   17.6219 C.ar    1  UNL1        0.0160
     25 C          62.9463   86.2955   17.4342 C.ar    1  UNL1        0.0411
     26 C          63.6753   85.7830   16.2276 C.ar    1  UNL1        0.1777
     27 C          64.2092   86.7458   15.2088 C.ar    1  UNL1        0.1905
     28 O          64.8816   85.9518   14.1283 O.3     1  UNL1       -0.4333
     29 C          64.7633   84.4983   14.4793 C.3     1  UNL1        0.4294
     30 O          64.0177   84.3939   15.7767 O.3     1  UNL1       -0.4346
@<TRIPOS>BOND
     1    15    16    1
     2    16    17    2
     3    16    18    2
     4    16     9    1
     5     9    10   ar
     6    10    11   ar
     7    11    12   ar
     8    12    13   ar
     9    13     7    1
    10     7     1    1
    11     1     2   ar
    12     2     3   ar
    13     3     4   ar
    14     4     5   ar
    15     5    19    1
    16    19    21    1
    17    21    22   ar
    18    22    23    1
    19    22    24   ar
    20    24    25   ar
    21    25    26   ar
    22    26    27   ar
    23    27    28    1
    24    28    29    1
    25    29    30    1
    26     5     6   ar
    27    13    14   ar
    28    14     9   ar
    29     6     1   ar
    30    27    21   ar
    31    30    26    1
    32     7     8    1
    33    19    20    1
@<TRIPOS>MOLECULE
*****
 30 33 0 0 0
SMALL
GASTEIGER

@<TRIPOS>ATOM
      1 C          64.1238   86.9895   15.1815 C.ar    1  UNL1        0.2218
      2 N          63.4924   86.7960   16.5283 N.ar    1  UNL1       -0.2119
      3 C          62.8761   87.9623   17.2423 C.ar    1  UNL1        0.1047
      4 C          62.8911   89.3222   16.6094 C.ar    1  UNL1        0.0552
      5 C          63.5224   89.5157   15.2626 C.ar    1  UNL1        0.1367
      6 N          64.1388   88.3493   14.5486 N.ar    1  UNL1       -0.1985
      7 N          64.7401   85.8230   14.4676 N.pl3   1  UNL1       -0.2825
      8 H          65.6864   85.5974   14.6188 H       1  UNL1        0.1551
      9 C          62.8920   82.7131   12.8359 C.ar    1  UNL1        0.1070
     10 C          62.2635   83.3551   11.6347 C.ar    1  UNL1        0.0184
     11 C          62.4606   84.8197   11.3778 C.ar    1  UNL1        0.0026
     12 C          63.2861   85.6424   12.3220 C.ar    1  UNL1        0.0148
     13 C          63.9146   85.0004   13.5233 C.ar    1  UNL1        0.0517
     14 C          63.7175   83.5357   13.7802 C.ar    1  UNL1        0.0330
     15 C          62.4978   79.7838   13.3495 C.3     1  UNL1        0.1816
     16 S          62.6949   81.2484   13.0928 S.O2    1  UNL1        0.0105
     17 O          62.8663   80.9687   11.6290 O.2     1  UNL1       -0.1686
     18 O          62.5234   81.5282   14.5564 O.2     1  UNL1       -0.1686
     19 N          63.5375   90.8755   14.6297 N.pl3   1  UNL1       -0.2947
     20 H          63.5688   91.6811   15.1947 H       1  UNL1        0.1537
     21 C          63.5047   91.0079   13.1358 C.ar    1  UNL1        0.0977
     22 C          64.6013   91.7432   12.4238 C.ar    1  UNL1        0.0742
     23 CL         65.7306   92.3462   13.2058 Cl      1  UNL1       -0.0808
     24 C          64.5686   91.8756   10.9301 C.ar    1  UNL1        0.0160
     25 C          63.4394   91.2727   10.1482 C.ar    1  UNL1        0.0411
     26 C          62.3429   90.5374   10.8601 C.ar    1  UNL1        0.1777
     27 C          62.3755   90.4050   12.3539 C.ar    1  UNL1        0.1905
     28 O          61.1635   89.6292   12.7772 O.3     1  UNL1       -0.4333
     29 C          60.3817   89.2822   11.5449 C.3     1  UNL1        0.4294
     30 O          61.1106   89.8435   10.3601 O.3     1  UNL1       -0.4346
@<TRIPOS>BOND
     1    15    16    1
     2    16    17    2
     3    16    18    2
     4    16     9    1
     5     9    10   ar
     6    10    11   ar
     7    11    12   ar
     8    12    13   ar
     9    13     7    1
    10     7     1    1
    11     1     2   ar
    12     2     3   ar
    13     3     4   ar
    14     4     5   ar
    15     5    19    1
    16    19    21    1
    17    21    22   ar
    18    22    23    1
    19    22    24   ar
    20    24    25   ar
    21    25    26   ar
    22    26    27   ar
    23    27    28    1
    24    28    29    1
    25    29    30    1
    26     5     6   ar
    27    13    14   ar
    28    14     9   ar
    29     6     1   ar
    30    27    21   ar
    31    30    26    1
    32     7     8    1
    33    19    20    1
@<TRIPOS>MOLECULE
*****
 30 33 0 0 0
SMALL
GASTEIGER

@<TRIPOS>ATOM
      1 C          64.1992   86.9775   14.6980 C.ar    1  UNL1        0.2218
      2 N          65.4331   86.2793   15.1880 N.ar    1  UNL1       -0.2119
      3 C          65.7585   84.8993   14.6982 C.ar    1  UNL1        0.1047
      4 C          64.8500   84.2176   13.7184 C.ar    1  UNL1        0.0552
      5 C          63.6162   84.9158   13.2285 C.ar    1  UNL1        0.1367
      6 N          63.2907   86.2957   13.7183 N.ar    1  UNL1       -0.1985
      7 N          63.8739   88.3574   15.1879 N.pl3   1  UNL1       -0.2825
      8 H          63.4071   88.4778   16.0463 H       1  UNL1        0.1551
      9 C          65.7013   91.6919   14.0514 C.ar    1  UNL1        0.1070
     10 C          65.0317   91.9471   12.7337 C.ar    1  UNL1        0.0184
     11 C          63.9761   91.0058   12.2340 C.ar    1  UNL1        0.0026
     12 C          63.5901   89.8093   13.0520 C.ar    1  UNL1        0.0148
     13 C          64.2598   89.5540   14.3698 C.ar    1  UNL1        0.0517
     14 C          65.3154   90.4953   14.8695 C.ar    1  UNL1        0.0330
     15 C          67.8124   93.5746   15.0506 C.3     1  UNL1        0.1816
     16 S          66.7569   92.6332   14.5510 S.O2    1  UNL1        0.0105
     17 O          65.9841   93.7936   13.9975 O.2     1  UNL1       -0.1686
     18 O          67.5297   91.4729   15.1046 O.2     1  UNL1       -0.1686
     19 N          62.7076   84.2342   12.2487 N.pl3   1  UNL1       -0.2947
     20 H          62.1955   83.4393   12.5230 H       1  UNL1        0.1537
     21 C          62.5794   84.7635   10.8511 C.ar    1  UNL1        0.0977
     22 C          63.3354   84.1133    9.7304 C.ar    1  UNL1        0.0742
     23 CL         64.2196   82.9336   10.0076 Cl      1  UNL1       -0.0808
     24 C          63.2072   84.6426    8.3329 C.ar    1  UNL1        0.0160
     25 C          62.3230   85.8221    8.0558 C.ar    1  UNL1        0.0411
     26 C          61.5670   86.4724    9.1763 C.ar    1  UNL1        0.1777
     27 C          61.6952   85.9431   10.5740 C.ar    1  UNL1        0.1905
     28 O          60.8342   86.7843   11.4690 O.3     1  UNL1       -0.4333
     29 C          60.1739   87.8335   10.6245 C.3     1  UNL1        0.4294
     30 O          60.6268   87.6407    9.2075 O.3     1  UNL1       -0.4346
@<TRIPOS>BOND
     1    15    16    1
     2    16    17    2
     3    16    18    2
     4    16     9    1
     5     9    10   ar
     6    10    11   ar
     7    11    12   ar
     8    12    13   ar
     9    13     7    1
    10     7     1    1
    11     1     2   ar
    12     2     3   ar
    13     3     4   ar
    14     4     5   ar
    15     5    19    1
    16    19    21    1
    17    21    22   ar
    18    22    23    1
    19    22    24   ar
    20    24    25   ar
    21    25    26   ar
    22    26    27   ar
    23    27    28    1
    24    28    29    1
    25    29    30    1
    26     5     6   ar
    27    13    14   ar
    28    14     9   ar
    29     6     1   ar
    30    27    21   ar
    31    30    26    1
    32     7     8    1
    33    19    20    1
@<TRIPOS>MOLECULE
*****
 30 33 0 0 0
SMALL
GASTEIGER

@<TRIPOS>ATOM
      1 C          61.8503   88.3507   11.7612 C.ar    1  UNL1        0.2218
      2 N          60.7219   88.3010   10.7741 N.ar    1  UNL1       -0.2119
      3 C          60.4896   87.0613    9.9623 C.ar    1  UNL1        0.1047
      4 C          61.3857   85.8712   10.1375 C.ar    1  UNL1        0.0552
      5 C          62.5141   85.9209   11.1246 C.ar    1  UNL1        0.1367
      6 N          62.7464   87.1606   11.9364 N.ar    1  UNL1       -0.1985
      7 N          62.0826   89.5906   12.5730 N.pl3   1  UNL1       -0.2825
      8 H          61.5329   89.7670   13.3704 H       1  UNL1        0.1551
      9 C          65.2037   92.0327   12.7845 C.ar    1  UNL1        0.1070
     10 C          65.2921   92.5035   11.3631 C.ar    1  UNL1        0.0184
     11 C          64.3106   92.0033   10.3449 C.ar    1  UNL1        0.0026
     12 C          63.2408   91.0324   10.7481 C.ar    1  UNL1        0.0148
     13 C          63.1524   90.5615   12.1697 C.ar    1  UNL1        0.0517
     14 C          64.1339   91.0617   13.1878 C.ar    1  UNL1        0.0330
     15 C          67.1667   93.0330   14.8206 C.3     1  UNL1        0.1816
     16 S          66.1852   92.5328   13.8026 S.O2    1  UNL1        0.0105
     17 O          67.1933   92.7652   12.7165 O.2     1  UNL1       -0.1686
     18 O          65.1769   92.3005   14.8887 O.2     1  UNL1       -0.1686
     19 N          63.4102   84.7309   11.2998 N.pl3   1  UNL1       -0.2947
     20 H          64.2431   84.6610   10.7796 H       1  UNL1        0.1537
     21 C          63.0374   83.6473   12.2678 C.ar    1  UNL1        0.0977
     22 C          62.8800   82.2347   11.7881 C.ar    1  UNL1        0.0742
     23 CL         63.0955   81.9058   10.3404 Cl      1  UNL1       -0.0808
     24 C          62.5071   81.1511   12.7559 C.ar    1  UNL1        0.0160
     25 C          62.2916   81.4800   14.2034 C.ar    1  UNL1        0.0411
     26 C          62.4490   82.8924   14.6831 C.ar    1  UNL1        0.1777
     27 C          62.8218   83.9761   13.7153 C.ar    1  UNL1        0.1905
     28 O          62.9051   85.2671   14.4744 O.3     1  UNL1       -0.4333
     29 C          62.5837   84.9814   15.9114 C.3     1  UNL1        0.4294
     30 O          62.3018   83.5137   16.0404 O.3     1  UNL1       -0.4346
@<TRIPOS>BOND
     1    15    16    1
     2    16    17    2
     3    16    18    2
     4    16     9    1
     5     9    10   ar
     6    10    11   ar
     7    11    12   ar
     8    12    13   ar
     9    13     7    1
    10     7     1    1
    11     1     2   ar
    12     2     3   ar
    13     3     4   ar
    14     4     5   ar
    15     5    19    1
    16    19    21    1
    17    21    22   ar
    18    22    23    1
    19    22    24   ar
    20    24    25   ar
    21    25    26   ar
    22    26    27   ar
    23    27    28    1
    24    28    29    1
    25    29    30    1
    26     5     6   ar
    27    13    14   ar
    28    14     9   ar
    29     6     1   ar
    30    27    21   ar
    31    30    26    1
    32     7     8    1
    33    19    20    1
@<TRIPOS>MOLECULE
*****
 30 33 0 0 0
SMALL
GASTEIGER

@<TRIPOS>ATOM
      1 C          61.6999   88.0481   11.1494 C.ar    1  UNL1        0.2218
      2 N          61.6240   88.4948    9.7195 N.ar    1  UNL1       -0.2119
      3 C          62.0283   89.8905    9.3473 C.ar    1  UNL1        0.1047
      4 C          62.5086   90.8395   10.4050 C.ar    1  UNL1        0.0552
      5 C          62.5845   90.3928   11.8349 C.ar    1  UNL1        0.1367
      6 N          62.1802   88.9971   12.2071 N.ar    1  UNL1       -0.1985
      7 N          61.2956   86.6524   11.5216 N.pl3   1  UNL1       -0.2825
      8 H          60.4730   86.5000   12.0405 H       1  UNL1        0.1551
      9 C          63.3079   83.2348   11.6652 C.ar    1  UNL1        0.1070
     10 C          63.8428   83.1617   10.2657 C.ar    1  UNL1        0.0184
     11 C          63.5285   84.2522    9.2849 C.ar    1  UNL1        0.0026
     12 C          62.6795   85.4157    9.7034 C.ar    1  UNL1        0.0148
     13 C          62.1446   85.4888   11.1030 C.ar    1  UNL1        0.0517
     14 C          62.4589   84.3983   12.0838 C.ar    1  UNL1        0.0330
     15 C          63.9364   81.0539   13.6270 C.3     1  UNL1        0.1816
     16 S          63.6221   82.1443   12.6461 S.O2    1  UNL1        0.0105
     17 O          64.3045   83.1410   13.5355 O.2     1  UNL1       -0.1686
     18 O          62.9398   81.1476   11.7567 O.2     1  UNL1       -0.1686
     19 N          63.0647   91.3417   12.8927 N.pl3   1  UNL1       -0.2947
     20 H          62.4146   91.8396   13.4392 H       1  UNL1        0.1537
     21 C          64.5355   91.5320   13.1178 C.ar    1  UNL1        0.0977
     22 C          65.1887   90.9530   14.3377 C.ar    1  UNL1        0.0742
     23 CL         64.3709   90.1836   15.3325 Cl      1  UNL1       -0.0808
     24 C          66.6593   91.1432   14.5629 C.ar    1  UNL1        0.0160
     25 C          67.4770   91.9126   13.5681 C.ar    1  UNL1        0.0411
     26 C          66.8239   92.4916   12.3482 C.ar    1  UNL1        0.1777
     27 C          65.3532   92.3014   12.1230 C.ar    1  UNL1        0.1905
     28 O          64.9891   92.9830   10.8374 O.3     1  UNL1       -0.4333
     29 C          66.2348   93.5945   10.2681 C.3     1  UNL1        0.4294
     30 O          67.3688   93.2908   11.2018 O.3     1  UNL1       -0.4346
@<TRIPOS>BOND
     1    15    16    1
     2    16    17    2
     3    16    18    2
     4    16     9    1
     5     9    10   ar
     6    10    11   ar
     7    11    12   ar
     8    12    13   ar
     9    13     7    1
    10     7     1    1
    11     1     2   ar
    12     2     3   ar
    13     3     4   ar
    14     4     5   ar
    15     5    19    1
    16    19    21    1
    17    21    22   ar
    18    22    23    1
    19    22    24   ar
    20    24    25   ar
    21    25    26   ar
    22    26    27   ar
    23    27    28    1
    24    28    29    1
    25    29    30    1
    26     5     6   ar
    27    13    14   ar
    28    14     9   ar
    29     6     1   ar
    30    27    21   ar
    31    30    26    1
    32     7     8    1
    33    19    20    1
@<TRIPOS>MOLECULE
*****
 30 33 0 0 0
SMALL
GASTEIGER

@<TRIPOS>ATOM
      1 C          61.9300   86.0447   10.3275 C.ar    1  UNL1        0.2218
      2 N          61.0523   86.0960    9.1122 N.ar    1  UNL1       -0.2119
      3 C          60.1989   87.3022    8.8538 C.ar    1  UNL1        0.1047
      4 C          60.2231   88.4571    9.8107 C.ar    1  UNL1        0.0552
      5 C          61.1008   88.4057   11.0260 C.ar    1  UNL1        0.1367
      6 N          61.9542   87.1995   11.2844 N.ar    1  UNL1       -0.1985
      7 N          62.7833   84.8384   10.5859 N.pl3   1  UNL1       -0.2825
      8 H          63.3503   84.4736    9.8684 H       1  UNL1        0.1551
      9 C          62.9495   84.3692   14.5232 C.ar    1  UNL1        0.1070
     10 C          62.7519   82.8869   14.6406 C.ar    1  UNL1        0.0184
     11 C          62.5648   82.0551   13.4064 C.ar    1  UNL1        0.0026
     12 C          62.5753   82.7055   12.0549 C.ar    1  UNL1        0.0148
     13 C          62.7729   84.1879   11.9375 C.ar    1  UNL1        0.0517
     14 C          62.9600   85.0197   13.1716 C.ar    1  UNL1        0.0330
     15 C          63.3237   86.0327   16.9915 C.3     1  UNL1        0.1816
     16 S          63.1367   85.2010   15.7573 S.O2    1  UNL1        0.0105
     17 O          61.6933   84.9989   16.1123 O.2     1  UNL1       -0.1686
     18 O          64.5800   85.4030   15.4023 O.2     1  UNL1       -0.1686
     19 N          61.1251   89.5605   11.9829 N.pl3   1  UNL1       -0.2947
     20 H          60.2918   89.8621   12.4117 H       1  UNL1        0.1537
     21 C          62.4191   90.2559   12.2865 C.ar    1  UNL1        0.0977
     22 C          63.1618   90.9683   11.1952 C.ar    1  UNL1        0.0742
     23 CL         62.6104   90.9854    9.8002 Cl      1  UNL1       -0.0808
     24 C          64.4557   91.6636   11.4987 C.ar    1  UNL1        0.0160
     25 C          65.0071   91.6466   12.8936 C.ar    1  UNL1        0.0411
     26 C          64.2645   90.9342   13.9849 C.ar    1  UNL1        0.1777
     27 C          62.9705   90.2388   13.6814 C.ar    1  UNL1        0.1905
     28 O          62.4657   89.6234   14.9527 O.3     1  UNL1       -0.4333
     29 C          63.4476   89.9384   16.0420 C.3     1  UNL1        0.4294
     30 O          64.5594   90.7485   15.4439 O.3     1  UNL1       -0.4346
@<TRIPOS>BOND
     1    15    16    1
     2    16    17    2
     3    16    18    2
     4    16     9    1
     5     9    10   ar
     6    10    11   ar
     7    11    12   ar
     8    12    13   ar
     9    13     7    1
    10     7     1    1
    11     1     2   ar
    12     2     3   ar
    13     3     4   ar
    14     4     5   ar
    15     5    19    1
    16    19    21    1
    17    21    22   ar
    18    22    23    1
    19    22    24   ar
    20    24    25   ar
    21    25    26   ar
    22    26    27   ar
    23    27    28    1
    24    28    29    1
    25    29    30    1
    26     5     6   ar
    27    13    14   ar
    28    14     9   ar
    29     6     1   ar
    30    27    21   ar
    31    30    26    1
    32     7     8    1
    33    19    20    1
