@<TRIPOS>MOLECULE
*****
 34 38 0 0 0
SMALL
GASTEIGER

@<TRIPOS>ATOM
      1 C          62.5493   85.9199   12.2633 C.ar    1  UNL1        0.0004
      2 C          61.7386   85.9814   11.0028 C.ar    1  UNL1        0.0031
      3 C          61.6288   87.2705   10.2438 C.ar    1  UNL1        0.0370
      4 C          62.3298   88.4982   10.7454 C.ar    1  UNL1        0.1415
      5 C          63.1405   88.4366   12.0059 C.ar    1  UNL1        0.0699
      6 C          63.2503   87.1475   12.7648 C.ar    1  UNL1        0.0061
      7 C          63.9129   89.5343   12.6756 C.ar    1  UNL1        0.1704
      8 N          64.6898   89.3428   13.9444 N.ar    1  UNL1       -0.1273
      9 N          65.3223   90.6548   14.3032 N.ar    1  UNL1       -0.1127
     10 C          64.9363   91.6571   13.2561 C.ar    1  UNL1        0.2224
     11 N          64.0653   90.9646   12.2502 N.ar    1  UNL1       -0.2796
     12 C          63.4829   91.6505   11.0501 C.3     1  UNL1        0.1574
     13 C          62.6044   91.0756    9.9789 C.3     1  UNL1        0.2299
     14 O          62.0912   89.6726    9.8433 O.3     1  UNL1       -0.4733
     15 C          62.7685   82.0350   13.0444 C.ar    1  UNL1        0.0590
     16 C          62.6587   83.3242   12.2854 C.ar    1  UNL1        0.0147
     17 C          62.6591   84.6307   13.0223 C.ar    1  UNL1        0.0027
     18 C          62.7692   84.6481   14.5181 C.ar    1  UNL1        0.0207
     19 C          62.8790   83.3590   15.2771 C.ar    1  UNL1        0.0984
     20 N          62.8787   82.0524   14.5403 N.ar    1  UNL1       -0.2482
     21 C          63.0295   80.7002   10.8308 C.3     1  UNL1        0.0067
     22 C          62.7682   80.7285   12.3076 C.3     1  UNL1        0.0458
     23 N          65.3490   93.0988   13.2211 N.pl3   1  UNL1       -0.2826
     24 H          65.1694   93.6811   13.9944 H       1  UNL1        0.1551
     25 C          66.0354   93.6533   12.0081 C.ar    1  UNL1        0.0504
     26 C          65.8838   95.1040   11.6581 C.ar    1  UNL1        0.0147
     27 C          66.5703   95.6585   10.4451 C.ar    1  UNL1        0.0012
     28 C          67.4081   94.7623    9.5821 C.ar    1  UNL1        0.0039
     29 C          67.5597   93.3116    9.9321 C.ar    1  UNL1        0.0726
     30 C          66.8733   92.7571   11.1452 C.ar    1  UNL1        0.0185
     31 C          68.3975   92.4154    9.0692 C.3     1  UNL1        0.4186
     32 F          69.2355   91.5190    8.2063 F       1  UNL1       -0.1659
     33 F          68.4992   91.4278   10.1936 F       1  UNL1       -0.1659
     34 F          68.2959   93.4029    7.9448 F       1  UNL1       -0.1659
@<TRIPOS>BOND
     1    21    22    1
     2    22    15    1
     3    15    16   ar
     4    16    17   ar
     5    17     1    1
     6     1     2   ar
     7     2     3   ar
     8     3     4   ar
     9     4     5   ar
    10     5     6   ar
    11     5     7    1
    12     7     8   ar
    13     8     9   ar
    14     9    10   ar
    15    10    23    1
    16    23    25    1
    17    25    26   ar
    18    26    27   ar
    19    27    28   ar
    20    28    29   ar
    21    29    31    1
    22    31    32    1
    23    31    33    1
    24    31    34    1
    25    29    30   ar
    26    10    11   ar
    27    11    12    1
    28    12    13    1
    29    13    14    1
    30    17    18   ar
    31    18    19   ar
    32    19    20   ar
    33    20    15   ar
    34     6     1   ar
    35    11     7   ar
    36    14     4    1
    37    30    25   ar
    38    23    24    1
@<TRIPOS>MOLECULE
*****
 34 38 0 0 0
SMALL
GASTEIGER

@<TRIPOS>ATOM
      1 C          62.6315   84.6363   11.0671 C.ar    1  UNL1        0.0004
      2 C          62.1877   85.1576    9.7325 C.ar    1  UNL1        0.0031
      3 C          62.1328   86.6360    9.4853 C.ar    1  UNL1        0.0370
      4 C          62.5217   87.5932   10.5727 C.ar    1  UNL1        0.1415
      5 C          62.9655   87.0720   11.9073 C.ar    1  UNL1        0.0699
      6 C          63.0204   85.5936   12.1545 C.ar    1  UNL1        0.0061
      7 C          63.3930   87.8464   13.1187 C.ar    1  UNL1        0.1704
      8 N          63.8177   87.2012   14.4045 N.ar    1  UNL1       -0.1273
      9 N          64.1695   88.2895   15.3752 N.ar    1  UNL1       -0.1127
     10 C          63.9621   89.6072   14.6892 C.ar    1  UNL1        0.2224
     11 N          63.4822   89.3334   13.2946 N.ar    1  UNL1       -0.2796
     12 C          63.1660   90.4132   12.3026 C.3     1  UNL1        0.1574
     13 C          62.6825   90.2727   10.8897 C.3     1  UNL1        0.2299
     14 O          62.3958   89.0176   10.1198 O.3     1  UNL1       -0.4733
     15 C          62.1656   81.1080   12.8234 C.ar    1  UNL1        0.0590
     16 C          62.1107   82.5865   12.5761 C.ar    1  UNL1        0.0147
     17 C          62.6864   83.1578   11.3144 C.ar    1  UNL1        0.0027
     18 C          63.3171   82.2507   10.2998 C.ar    1  UNL1        0.0207
     19 C          63.3720   80.7722   10.5470 C.ar    1  UNL1        0.0984
     20 N          62.7963   80.2009   11.8089 N.ar    1  UNL1       -0.2482
     21 C          60.1079   80.3424   14.2126 C.3     1  UNL1        0.0067
     22 C          61.5898   80.5367   14.0852 C.3     1  UNL1        0.0458
     23 N          64.1940   90.9610   15.2920 N.pl3   1  UNL1       -0.2826
     24 H          63.4870   91.3893   15.8268 H       1  UNL1        0.1551
     25 C          65.5029   91.6623   15.0800 C.ar    1  UNL1        0.0504
     26 C          66.0859   92.5086   16.1727 C.ar    1  UNL1        0.0147
     27 C          67.3948   93.2099   15.9606 C.ar    1  UNL1        0.0012
     28 C          68.1206   93.0649   14.6560 C.ar    1  UNL1        0.0039
     29 C          67.5376   92.2186   13.5633 C.ar    1  UNL1        0.0726
     30 C          66.2287   91.5173   13.7754 C.ar    1  UNL1        0.0185
     31 C          68.2634   92.0735   12.2587 C.3     1  UNL1        0.4186
     32 F          68.9892   91.9285   10.9540 F       1  UNL1       -0.1659
     33 F          67.0463   92.5576   11.5277 F       1  UNL1       -0.1659
     34 F          69.4805   91.5894   12.9895 F       1  UNL1       -0.1659
@<TRIPOS>BOND
     1    21    22    1
     2    22    15    1
     3    15    16   ar
     4    16    17   ar
     5    17     1    1
     6     1     2   ar
     7     2     3   ar
     8     3     4   ar
     9     4     5   ar
    10     5     6   ar
    11     5     7    1
    12     7     8   ar
    13     8     9   ar
    14     9    10   ar
    15    10    23    1
    16    23    25    1
    17    25    26   ar
    18    26    27   ar
    19    27    28   ar
    20    28    29   ar
    21    29    31    1
    22    31    32    1
    23    31    33    1
    24    31    34    1
    25    29    30   ar
    26    10    11   ar
    27    11    12    1
    28    12    13    1
    29    13    14    1
    30    17    18   ar
    31    18    19   ar
    32    19    20   ar
    33    20    15   ar
    34     6     1   ar
    35    11     7   ar
    36    14     4    1
    37    30    25   ar
    38    23    24    1
@<TRIPOS>MOLECULE
*****
 34 38 0 0 0
SMALL
GASTEIGER

@<TRIPOS>ATOM
      1 C          59.6161   88.8648    7.2043 C.ar    1  UNL1        0.0004
      2 C          59.2335   87.4289    6.9994 C.ar    1  UNL1        0.0031
      3 C          59.7308   86.3778    7.9469 C.ar    1  UNL1        0.0370
      4 C          60.6107   86.7624    9.0992 C.ar    1  UNL1        0.1415
      5 C          60.9933   88.1982    9.3040 C.ar    1  UNL1        0.0699
      6 C          60.4960   89.2494    8.3566 C.ar    1  UNL1        0.0061
      7 C          61.8535   88.7926   10.3795 C.ar    1  UNL1        0.1704
      8 N          62.1633   90.2571   10.4750 N.ar    1  UNL1       -0.1273
      9 N          63.0449   90.4676   11.6702 N.ar    1  UNL1       -0.1127
     10 C          63.2798   89.1331   12.3135 C.ar    1  UNL1        0.2224
     11 N          62.5435   88.0978   11.5159 N.ar    1  UNL1       -0.2796
     12 C          62.5438   86.6372   11.8573 C.3     1  UNL1        0.1574
     13 C          61.8541   85.5106   11.1468 C.3     1  UNL1        0.2299
     14 O          60.9938   85.5663    9.9193 O.3     1  UNL1       -0.4733
     15 C          59.5965   91.7634    4.4935 C.ar    1  UNL1        0.0590
     16 C          60.0938   90.7121    5.4410 C.ar    1  UNL1        0.0147
     17 C          59.1189   89.9160    6.2568 C.ar    1  UNL1        0.0027
     18 C          57.6466   90.1711    6.1252 C.ar    1  UNL1        0.0207
     19 C          57.1493   91.2223    5.1778 C.ar    1  UNL1        0.0984
     20 N          58.1243   92.0185    4.3619 N.ar    1  UNL1       -0.2482
     21 C          60.1287   93.2024    2.3968 C.3     1  UNL1        0.0067
     22 C          60.5715   92.5594    3.6777 C.3     1  UNL1        0.0458
     23 N          64.1061   88.8785   13.5394 N.pl3   1  UNL1       -0.2826
     24 H          64.4553   87.9757   13.7188 H       1  UNL1        0.1551
     25 C          64.4002   89.9995   14.4917 C.ar    1  UNL1        0.0504
     26 C          63.4531   90.2960   15.6164 C.ar    1  UNL1        0.0147
     27 C          63.7473   91.4170   16.5688 C.ar    1  UNL1        0.0012
     28 C          64.9886   92.2413   16.3963 C.ar    1  UNL1        0.0039
     29 C          65.9357   91.9447   15.2717 C.ar    1  UNL1        0.0726
     30 C          65.6415   90.8237   14.3193 C.ar    1  UNL1        0.0185
     31 C          67.1770   92.7689   15.0992 C.3     1  UNL1        0.4186
     32 F          68.4184   93.5932   14.9269 F       1  UNL1       -0.1659
     33 F          68.0007   91.6445   15.6536 F       1  UNL1       -0.1659
     34 F          66.3534   93.8934   14.5450 F       1  UNL1       -0.1659
@<TRIPOS>BOND
     1    21    22    1
     2    22    15    1
     3    15    16   ar
     4    16    17   ar
     5    17     1    1
     6     1     2   ar
     7     2     3   ar
     8     3     4   ar
     9     4     5   ar
    10     5     6   ar
    11     5     7    1
    12     7     8   ar
    13     8     9   ar
    14     9    10   ar
    15    10    23    1
    16    23    25    1
    17    25    26   ar
    18    26    27   ar
    19    27    28   ar
    20    28    29   ar
    21    29    31    1
    22    31    32    1
    23    31    33    1
    24    31    34    1
    25    29    30   ar
    26    10    11   ar
    27    11    12    1
    28    12    13    1
    29    13    14    1
    30    17    18   ar
    31    18    19   ar
    32    19    20   ar
    33    20    15   ar
    34     6     1   ar
    35    11     7   ar
    36    14     4    1
    37    30    25   ar
    38    23    24    1
@<TRIPOS>MOLECULE
*****
 34 38 0 0 0
SMALL
GASTEIGER

@<TRIPOS>ATOM
      1 C          59.6173   89.0354    7.3573 C.ar    1  UNL1        0.0004
      2 C          59.2720   87.5771    7.2939 C.ar    1  UNL1        0.0031
      3 C          59.8431   86.6265    8.3038 C.ar    1  UNL1        0.0370
      4 C          60.7596   87.1342    9.3773 C.ar    1  UNL1        0.1415
      5 C          61.1050   88.5925    9.4408 C.ar    1  UNL1        0.0699
      6 C          60.5338   89.5431    8.4308 C.ar    1  UNL1        0.0061
      7 C          61.9918   89.3018   10.4207 C.ar    1  UNL1        0.1704
      8 N          62.2588   90.7772   10.3762 N.ar    1  UNL1       -0.1273
      9 N          63.1843   91.1152   11.5072 N.ar    1  UNL1       -0.1127
     10 C          63.4893   89.8487   12.2508 C.ar    1  UNL1        0.2224
     11 N          62.7523   88.7280   11.5794 N.ar    1  UNL1       -0.2796
     12 C          62.8138   87.3031   12.0441 C.3     1  UNL1        0.1574
     13 C          62.1300   86.1002   11.4651 C.3     1  UNL1        0.2299
     14 O          61.2157   86.0250   10.2782 O.3     1  UNL1       -0.4733
     15 C          59.3904   91.7735    4.4934 C.ar    1  UNL1        0.0590
     16 C          59.9615   90.8228    5.5034 C.ar    1  UNL1        0.0147
     17 C          59.0462   89.9861    6.3473 C.ar    1  UNL1        0.0027
     18 C          57.5598   90.1001    6.1812 C.ar    1  UNL1        0.0207
     19 C          56.9887   91.0507    5.1713 C.ar    1  UNL1        0.0984
     20 N          57.9039   91.8874    4.3273 N.ar    1  UNL1       -0.2482
     21 C          59.8827   93.0286    2.2726 C.3     1  UNL1        0.0067
     22 C          60.3056   92.6102    3.6495 C.3     1  UNL1        0.0458
     23 N          64.3757   89.7248   13.4545 N.pl3   1  UNL1       -0.2826
     24 H          65.2169   90.2341   13.5009 H       1  UNL1        0.1551
     25 C          63.9804   88.8249   14.5877 C.ar    1  UNL1        0.0504
     26 C          63.3387   89.4017   15.8147 C.ar    1  UNL1        0.0147
     27 C          62.9435   88.5017   16.9478 C.ar    1  UNL1        0.0012
     28 C          63.1899   87.0251   16.8538 C.ar    1  UNL1        0.0039
     29 C          63.8315   86.4483   15.6268 C.ar    1  UNL1        0.0726
     30 C          64.2268   87.3483   14.4937 C.ar    1  UNL1        0.0185
     31 C          64.0779   84.9718   15.5328 C.3     1  UNL1        0.4186
     32 F          64.3244   83.4951   15.4388 F       1  UNL1       -0.1659
     33 F          65.3968   85.2341   14.8682 F       1  UNL1       -0.1659
     34 F          62.7591   84.7093   16.1975 F       1  UNL1       -0.1659
@<TRIPOS>BOND
     1    21    22    1
     2    22    15    1
     3    15    16   ar
     4    16    17   ar
     5    17     1    1
     6     1     2   ar
     7     2     3   ar
     8     3     4   ar
     9     4     5   ar
    10     5     6   ar
    11     5     7    1
    12     7     8   ar
    13     8     9   ar
    14     9    10   ar
    15    10    23    1
    16    23    25    1
    17    25    26   ar
    18    26    27   ar
    19    27    28   ar
    20    28    29   ar
    21    29    31    1
    22    31    32    1
    23    31    33    1
    24    31    34    1
    25    29    30   ar
    26    10    11   ar
    27    11    12    1
    28    12    13    1
    29    13    14    1
    30    17    18   ar
    31    18    19   ar
    32    19    20   ar
    33    20    15   ar
    34     6     1   ar
    35    11     7   ar
    36    14     4    1
    37    30    25   ar
    38    23    24    1
@<TRIPOS>MOLECULE
*****
 34 38 0 0 0
SMALL
GASTEIGER

@<TRIPOS>ATOM
      1 C          62.5555   84.1529   11.2656 C.ar    1  UNL1        0.0004
      2 C          62.0826   84.5399    9.8957 C.ar    1  UNL1        0.0031
      3 C          62.0002   85.9876    9.5119 C.ar    1  UNL1        0.0370
      4 C          62.3908   87.0483   10.4980 C.ar    1  UNL1        0.1415
      5 C          62.8638   86.6614   11.8678 C.ar    1  UNL1        0.0699
      6 C          62.9462   85.2137   12.2516 C.ar    1  UNL1        0.0061
      7 C          63.2978   87.5523   12.9937 C.ar    1  UNL1        0.1704
      8 N          63.7530   87.0371   14.3269 N.ar    1  UNL1       -0.1273
      9 N          64.1025   88.2168   15.1850 N.ar    1  UNL1       -0.1127
     10 C          63.8634   89.4610   14.3822 C.ar    1  UNL1        0.2224
     11 N          63.3661   89.0504   13.0279 N.ar    1  UNL1       -0.2796
     12 C          63.0171   90.0275   11.9445 C.3     1  UNL1        0.1574
     13 C          62.5138   89.7478   10.5595 C.3     1  UNL1        0.2299
     14 O          62.2350   88.4219    9.9157 O.3     1  UNL1       -0.4733
     15 C          62.8933   80.2094   10.9742 C.ar    1  UNL1        0.0590
     16 C          62.8109   81.6571   10.5904 C.ar    1  UNL1        0.0147
     17 C          62.6379   82.7052   11.6494 C.ar    1  UNL1        0.0027
     18 C          62.5473   82.3055   13.0924 C.ar    1  UNL1        0.0207
     19 C          62.6297   80.8579   13.4762 C.ar    1  UNL1        0.0984
     20 N          62.8027   79.8097   12.4172 N.ar    1  UNL1       -0.2482
     21 C          62.8275   77.7172   10.2430 C.3     1  UNL1        0.0067
     22 C          63.0664   79.1614    9.9152 C.3     1  UNL1        0.0458
     23 N          64.0831   90.8687   14.8513 N.pl3   1  UNL1       -0.2826
     24 H          63.4803   91.2638   15.5220 H       1  UNL1        0.1551
     25 C          65.2211   91.6746   14.2986 C.ar    1  UNL1        0.0504
     26 C          65.1928   92.1307   12.8700 C.ar    1  UNL1        0.0147
     27 C          66.3309   92.9366   12.3173 C.ar    1  UNL1        0.0012
     28 C          67.4971   93.2863   13.1933 C.ar    1  UNL1        0.0039
     29 C          67.5255   92.8302   14.6220 C.ar    1  UNL1        0.0726
     30 C          66.3873   92.0243   15.1747 C.ar    1  UNL1        0.0185
     31 C          68.6917   93.1798   15.4980 C.3     1  UNL1        0.4186
     32 F          69.8580   93.5296   16.3742 F       1  UNL1       -0.1659
     33 F          67.7733   93.9189   16.4257 F       1  UNL1       -0.1659
     34 F          69.6101   92.4408   14.5706 F       1  UNL1       -0.1659
@<TRIPOS>BOND
     1    21    22    1
     2    22    15    1
     3    15    16   ar
     4    16    17   ar
     5    17     1    1
     6     1     2   ar
     7     2     3   ar
     8     3     4   ar
     9     4     5   ar
    10     5     6   ar
    11     5     7    1
    12     7     8   ar
    13     8     9   ar
    14     9    10   ar
    15    10    23    1
    16    23    25    1
    17    25    26   ar
    18    26    27   ar
    19    27    28   ar
    20    28    29   ar
    21    29    31    1
    22    31    32    1
    23    31    33    1
    24    31    34    1
    25    29    30   ar
    26    10    11   ar
    27    11    12    1
    28    12    13    1
    29    13    14    1
    30    17    18   ar
    31    18    19   ar
    32    19    20   ar
    33    20    15   ar
    34     6     1   ar
    35    11     7   ar
    36    14     4    1
    37    30    25   ar
    38    23    24    1
@<TRIPOS>MOLECULE
*****
 34 38 0 0 0
SMALL
GASTEIGER

@<TRIPOS>ATOM
      1 C          63.2920   83.7831   13.9218 C.ar    1  UNL1        0.0004
      2 C          63.7890   83.9442   15.3279 C.ar    1  UNL1        0.0031
      3 C          64.0872   85.3122   15.8658 C.ar    1  UNL1        0.0370
      4 C          63.8883   86.5192   14.9977 C.ar    1  UNL1        0.1415
      5 C          63.3912   86.3581   13.5916 C.ar    1  UNL1        0.0699
      6 C          63.0931   84.9901   13.0537 C.ar    1  UNL1        0.0061
      7 C          63.1261   87.4200   12.5660 C.ar    1  UNL1        0.1704
      8 N          62.6260   87.1263   11.1826 N.ar    1  UNL1       -0.1273
      9 N          62.4833   88.4301   10.4547 N.ar    1  UNL1       -0.1127
     10 C          62.8953   89.5296   11.3882 C.ar    1  UNL1        0.2224
     11 N          63.2926   88.9054   12.6930 N.ar    1  UNL1       -0.2796
     12 C          63.7653   89.6956   13.8771 C.3     1  UNL1        0.1574
     13 C          64.1882   89.1957   15.2266 C.3     1  UNL1        0.2299
     14 O          64.2430   87.7821   15.7253 O.3     1  UNL1       -0.4733
     15 C          62.9486   80.7379   11.4000 C.ar    1  UNL1        0.0590
     16 C          63.2468   82.1061   11.9380 C.ar    1  UNL1        0.0147
     17 C          62.9939   82.4149   13.3838 C.ar    1  UNL1        0.0027
     18 C          62.4428   81.3557   14.2918 C.ar    1  UNL1        0.0207
     19 C          62.1446   79.9876   13.7539 C.ar    1  UNL1        0.0984
     20 N          62.3976   79.6787   12.3079 N.ar    1  UNL1       -0.2482
     21 C          62.8412   79.0823    9.4007 C.3     1  UNL1        0.0067
     22 C          63.2016   80.4290    9.9541 C.3     1  UNL1        0.0458
     23 N          62.9078   90.9959   11.0723 N.pl3   1  UNL1       -0.2826
     24 H          62.0974   91.4306   10.7209 H       1  UNL1        0.1551
     25 C          64.1550   91.7999   11.2917 C.ar    1  UNL1        0.0504
     26 C          64.8648   92.4170   10.1231 C.ar    1  UNL1        0.0147
     27 C          66.1120   93.2209   10.3426 C.ar    1  UNL1        0.0012
     28 C          66.6493   93.4078   11.7305 C.ar    1  UNL1        0.0039
     29 C          65.9396   92.7907   12.8990 C.ar    1  UNL1        0.0726
     30 C          64.6923   91.9867   12.6795 C.ar    1  UNL1        0.0185
     31 C          66.4769   92.9775   14.2869 C.3     1  UNL1        0.4186
     32 F          67.0143   93.1645   15.6748 F       1  UNL1       -0.1659
     33 F          66.4458   94.4654   14.0987 F       1  UNL1       -0.1659
     34 F          66.5081   91.4898   14.4752 F       1  UNL1       -0.1659
@<TRIPOS>BOND
     1    21    22    1
     2    22    15    1
     3    15    16   ar
     4    16    17   ar
     5    17     1    1
     6     1     2   ar
     7     2     3   ar
     8     3     4   ar
     9     4     5   ar
    10     5     6   ar
    11     5     7    1
    12     7     8   ar
    13     8     9   ar
    14     9    10   ar
    15    10    23    1
    16    23    25    1
    17    25    26   ar
    18    26    27   ar
    19    27    28   ar
    20    28    29   ar
    21    29    31    1
    22    31    32    1
    23    31    33    1
    24    31    34    1
    25    29    30   ar
    26    10    11   ar
    27    11    12    1
    28    12    13    1
    29    13    14    1
    30    17    18   ar
    31    18    19   ar
    32    19    20   ar
    33    20    15   ar
    34     6     1   ar
    35    11     7   ar
    36    14     4    1
    37    30    25   ar
    38    23    24    1
@<TRIPOS>MOLECULE
*****
 34 38 0 0 0
SMALL
GASTEIGER

@<TRIPOS>ATOM
      1 C          63.1739   83.8665   13.9660 C.ar    1  UNL1        0.0004
      2 C          63.5872   84.0427   15.3971 C.ar    1  UNL1        0.0031
      3 C          63.8590   85.4160   15.9356 C.ar    1  UNL1        0.0370
      4 C          63.7174   86.6132   15.0430 C.ar    1  UNL1        0.1415
      5 C          63.3041   86.4371   13.6119 C.ar    1  UNL1        0.0699
      6 C          63.0323   85.0637   13.0734 C.ar    1  UNL1        0.0061
      7 C          63.1051   87.4875   12.5598 C.ar    1  UNL1        0.1704
      8 N          62.6866   87.1790   11.1528 N.ar    1  UNL1       -0.1273
      9 N          62.5933   88.4745   10.4024 N.ar    1  UNL1       -0.1127
     10 C          62.9541   89.5836   11.3456 C.ar    1  UNL1        0.2224
     11 N          63.2704   88.9736   12.6790 N.ar    1  UNL1       -0.2796
     12 C          63.6754   89.7763   13.8797 C.3     1  UNL1        0.1574
     13 C          64.0153   89.2911   15.2578 C.3     1  UNL1        0.2299
     14 O          64.0339   87.8834   15.7755 O.3     1  UNL1       -0.4733
     15 C          62.9347   80.8027   11.4548 C.ar    1  UNL1        0.0590
     16 C          63.2065   82.1761   11.9933 C.ar    1  UNL1        0.0147
     17 C          62.9021   82.4931   13.4275 C.ar    1  UNL1        0.0027
     18 C          62.3258   81.4369   14.3231 C.ar    1  UNL1        0.0207
     19 C          62.0540   80.0635   13.7846 C.ar    1  UNL1        0.0984
     20 N          62.3584   79.7464   12.3504 N.ar    1  UNL1       -0.2482
     21 C          62.8650   79.1489    9.4523 C.3     1  UNL1        0.0067
     22 C          63.2392   80.4857   10.0207 C.3     1  UNL1        0.0458
     23 N          62.9919   91.0459   11.0137 N.pl3   1  UNL1       -0.2826
     24 H          62.2038   91.4807   10.6148 H       1  UNL1        0.1551
     25 C          64.2304   91.8459   11.2895 C.ar    1  UNL1        0.0504
     26 C          64.6824   92.0650   12.7029 C.ar    1  UNL1        0.0147
     27 C          65.9210   92.8651   12.9786 C.ar    1  UNL1        0.0012
     28 C          66.7074   93.4459   11.8410 C.ar    1  UNL1        0.0039
     29 C          66.2554   93.2268   10.4276 C.ar    1  UNL1        0.0726
     30 C          65.0168   92.4267   10.1519 C.ar    1  UNL1        0.0185
     31 C          67.0418   93.8076    9.2901 C.3     1  UNL1        0.4186
     32 F          67.8282   94.3883    8.1524 F       1  UNL1       -0.1659
     33 F          67.8499   92.5467    9.2050 F       1  UNL1       -0.1659
     34 F          66.2337   95.0684    9.3751 F       1  UNL1       -0.1659
@<TRIPOS>BOND
     1    21    22    1
     2    22    15    1
     3    15    16   ar
     4    16    17   ar
     5    17     1    1
     6     1     2   ar
     7     2     3   ar
     8     3     4   ar
     9     4     5   ar
    10     5     6   ar
    11     5     7    1
    12     7     8   ar
    13     8     9   ar
    14     9    10   ar
    15    10    23    1
    16    23    25    1
    17    25    26   ar
    18    26    27   ar
    19    27    28   ar
    20    28    29   ar
    21    29    31    1
    22    31    32    1
    23    31    33    1
    24    31    34    1
    25    29    30   ar
    26    10    11   ar
    27    11    12    1
    28    12    13    1
    29    13    14    1
    30    17    18   ar
    31    18    19   ar
    32    19    20   ar
    33    20    15   ar
    34     6     1   ar
    35    11     7   ar
    36    14     4    1
    37    30    25   ar
    38    23    24    1
@<TRIPOS>MOLECULE
*****
 34 38 0 0 0
SMALL
GASTEIGER

@<TRIPOS>ATOM
      1 C          62.6341   85.2965   11.2132 C.ar    1  UNL1        0.0004
      2 C          63.1416   86.1659   12.3252 C.ar    1  UNL1        0.0031
      3 C          62.8284   87.6328   12.3329 C.ar    1  UNL1        0.0370
      4 C          62.0077   88.2302   11.2286 C.ar    1  UNL1        0.1415
      5 C          61.5003   87.3608   10.1166 C.ar    1  UNL1        0.0699
      6 C          61.8135   85.8940   10.1089 C.ar    1  UNL1        0.0061
      7 C          60.6721   87.7506    8.9283 C.ar    1  UNL1        0.1704
      8 N          60.2253   86.7779    7.8775 N.ar    1  UNL1       -0.1273
      9 N          59.4238   87.5321    6.8583 N.ar    1  UNL1       -0.1127
     10 C          59.3753   88.9710    7.2792 C.ar    1  UNL1        0.2224
     11 N          60.1467   89.1061    8.5585 N.ar    1  UNL1       -0.2796
     12 C          60.3199   90.4065    9.2857 C.3     1  UNL1        0.1574
     13 C          61.0612   90.6728   10.5622 C.3     1  UNL1        0.2299
     14 O          61.8123   89.7042   11.4269 O.3     1  UNL1       -0.4733
     15 C          62.7365   81.4780   12.2900 C.ar    1  UNL1        0.0590
     16 C          62.4233   82.9450   12.2977 C.ar    1  UNL1        0.0147
     17 C          62.9473   83.8295   11.2055 C.ar    1  UNL1        0.0027
     18 C          63.7846   83.2472   10.1056 C.ar    1  UNL1        0.0207
     19 C          64.0978   81.7803   10.0978 C.ar    1  UNL1        0.0984
     20 N          63.5737   80.8956   11.1900 N.ar    1  UNL1       -0.2482
     21 C          60.9576   80.9682   14.1136 C.3     1  UNL1        0.0067
     22 C          62.2124   80.5934   13.3821 C.3     1  UNL1        0.0458
     23 N          58.6778   90.0802    6.5489 N.pl3   1  UNL1       -0.2826
     24 H          57.7512   90.3169    6.7824 H       1  UNL1        0.1551
     25 C          59.3920   90.8286    5.4627 C.ar    1  UNL1        0.0504
     26 C          58.7062   91.9597    4.7554 C.ar    1  UNL1        0.0147
     27 C          59.4205   92.7081    3.6692 C.ar    1  UNL1        0.0012
     28 C          60.8205   92.3253    3.2904 C.ar    1  UNL1        0.0039
     29 C          61.5063   91.1942    3.9976 C.ar    1  UNL1        0.0726
     30 C          60.7919   90.4458    5.0839 C.ar    1  UNL1        0.0185
     31 C          62.9062   90.8114    3.6188 C.3     1  UNL1        0.4186
     32 F          64.3062   90.4285    3.2400 F       1  UNL1       -0.1659
     33 F          62.5092   89.3648    3.6136 F       1  UNL1       -0.1659
     34 F          63.3032   92.2578    3.6240 F       1  UNL1       -0.1659
@<TRIPOS>BOND
     1    21    22    1
     2    22    15    1
     3    15    16   ar
     4    16    17   ar
     5    17     1    1
     6     1     2   ar
     7     2     3   ar
     8     3     4   ar
     9     4     5   ar
    10     5     6   ar
    11     5     7    1
    12     7     8   ar
    13     8     9   ar
    14     9    10   ar
    15    10    23    1
    16    23    25    1
    17    25    26   ar
    18    26    27   ar
    19    27    28   ar
    20    28    29   ar
    21    29    31    1
    22    31    32    1
    23    31    33    1
    24    31    34    1
    25    29    30   ar
    26    10    11   ar
    27    11    12    1
    28    12    13    1
    29    13    14    1
    30    17    18   ar
    31    18    19   ar
    32    19    20   ar
    33    20    15   ar
    34     6     1   ar
    35    11     7   ar
    36    14     4    1
    37    30    25   ar
    38    23    24    1
