@<TRIPOS>MOLECULE
*****
 32 33 0 0 0
SMALL
GASTEIGER

@<TRIPOS>ATOM
      1 C          62.1525   81.5146   14.0769 C.3     1  UNL1        0.0040
      2 C          62.3766   82.9451   14.4686 C.3     1  UNL1        0.0473
      3 C          63.7438   83.4044   14.8809 C.3     1  UNL1        0.2054
      4 O          63.9096   84.2728   16.0926 O.3     1  UNL1       -0.4755
      5 C          63.5950   88.7459   15.7154 C.ar    1  UNL1        0.0815
      6 C          64.3155   87.9535   14.6652 C.ar    1  UNL1        0.0105
      7 C          64.4203   86.4624   14.7909 C.ar    1  UNL1        0.0371
      8 C          63.8047   85.7638   15.9669 C.ar    1  UNL1        0.1386
      9 C          63.0842   86.5562   17.0171 C.ar    1  UNL1        0.0371
     10 C          62.9793   88.0472   16.8913 C.ar    1  UNL1        0.0105
     11 N          63.5945   91.1017   16.8107 N.2     1  UNL1       -0.0994
     12 C          63.4901   90.2369   15.5896 C.2     1  UNL1        0.3093
     13 N          63.2809   90.8631   14.2428 N.pl3   1  UNL1       -0.2466
     14 H          63.5256   92.0804   16.7282 H       1  UNL1        0.3633
     15 H          63.2120   91.8417   14.1603 H       1  UNL1        0.2884
     16 H          63.2123   90.2955   13.4413 H       1  UNL1        0.2884
     17 C          63.0057   80.8850   13.0159 C.3     1  UNL1        0.0040
     18 C          63.0596   81.4856   11.6425 C.3     1  UNL1        0.0473
     19 C          64.2239   82.3434   11.2442 C.3     1  UNL1        0.2054
     20 O          64.1028   83.2769   10.0763 O.3     1  UNL1       -0.4755
     21 C          63.1852   84.4609   10.1545 C.ar    1  UNL1        0.1386
     22 C          62.6072   84.8759   11.4749 C.ar    1  UNL1        0.0371
     23 C          61.6896   86.0599   11.5531 C.ar    1  UNL1        0.0105
     24 C          61.3499   86.8288   10.3109 C.ar    1  UNL1        0.0815
     25 C          61.9278   86.4138    8.9903 C.ar    1  UNL1        0.0105
     26 C          62.8455   85.2298    8.9121 C.ar    1  UNL1        0.0371
     27 C          60.4322   88.0128   10.3891 C.2     1  UNL1        0.3093
     28 N          59.6739   88.2917   11.6529 N.2     1  UNL1       -0.0994
     29 N          60.2728   88.9178    9.2035 N.pl3   1  UNL1       -0.2466
     30 H          59.7784   87.6977   12.4310 H       1  UNL1        0.3633
     31 H          60.7706   88.7347    8.3741 H       1  UNL1        0.2884
     32 H          59.6706   89.6949    9.2549 H       1  UNL1        0.2884
@<TRIPOS>BOND
     1    11    12    2
     2    12    13    1
     3    12     5    1
     4     5     6   ar
     5     6     7   ar
     6     7     8   ar
     7     8     4    1
     8     4     3    1
     9     3     2    1
    10     2     1    1
    11     1    17    1
    12    17    18    1
    13    18    19    1
    14    19    20    1
    15    20    21    1
    16    21    22   ar
    17    22    23   ar
    18    23    24   ar
    19    24    27    1
    20    27    28    2
    21    27    29    1
    22    24    25   ar
    23    25    26   ar
    24     8     9   ar
    25     9    10   ar
    26    10     5   ar
    27    26    21   ar
    28    11    14    1
    29    13    15    1
    30    13    16    1
    31    28    30    1
    32    29    31    1
    33    29    32    1
@<TRIPOS>MOLECULE
*****
 32 33 0 0 0
SMALL
GASTEIGER

@<TRIPOS>ATOM
      1 C          62.2352   81.2268   12.9049 C.3     1  UNL1        0.0040
      2 C          63.1475   81.1425   11.7172 C.3     1  UNL1        0.0473
      3 C          64.1689   82.2148   11.4784 C.3     1  UNL1        0.2054
      4 O          64.0611   83.0977   10.2706 O.3     1  UNL1       -0.4755
      5 C          61.5522   86.8301   10.4286 C.ar    1  UNL1        0.0815
      6 C          61.8387   86.0652   11.6866 C.ar    1  UNL1        0.0105
      7 C          62.6750   84.8211   11.6340 C.ar    1  UNL1        0.0371
      8 C          63.2248   84.3419   10.3233 C.ar    1  UNL1        0.1386
      9 C          62.9383   85.1067    9.0652 C.ar    1  UNL1        0.0371
     10 C          62.1020   86.3509    9.1178 C.ar    1  UNL1        0.0105
     11 N          60.9377   89.1699    9.4811 N.2     1  UNL1       -0.0994
     12 C          60.7159   88.0742   10.4812 C.2     1  UNL1        0.3093
     13 N          59.6578   88.2227   11.5340 N.pl3   1  UNL1       -0.2466
     14 H          60.3888   89.9865    9.5157 H       1  UNL1        0.3633
     15 H          59.1089   89.0392   11.5685 H       1  UNL1        0.2884
     16 H          59.5122   87.5035   12.1904 H       1  UNL1        0.2884
     17 C          62.7874   81.5945   14.2502 C.3     1  UNL1        0.0040
     18 C          62.5464   82.9646   14.8109 C.3     1  UNL1        0.0473
     19 C          63.7060   83.8702   15.1030 C.3     1  UNL1        0.2054
     20 O          63.6455   84.8147   16.2667 O.3     1  UNL1       -0.4755
     21 C          63.6665   86.2961   16.0322 C.ar    1  UNL1        0.1386
     22 C          64.3168   86.8512   14.7997 C.ar    1  UNL1        0.0371
     23 C          64.3378   88.3326   14.5652 C.ar    1  UNL1        0.0105
     24 C          63.7085   89.2589   15.5631 C.ar    1  UNL1        0.0815
     25 C          63.0581   88.7039   16.7956 C.ar    1  UNL1        0.0105
     26 C          63.0371   87.2225   17.0301 C.ar    1  UNL1        0.0371
     27 C          63.7295   90.7403   15.3285 C.2     1  UNL1        0.3093
     28 N          63.7868   91.6834   16.4936 N.2     1  UNL1       -0.0994
     29 N          63.6932   91.2787   13.9289 N.pl3   1  UNL1       -0.2466
     30 H          63.8106   91.3301   17.4122 H       1  UNL1        0.3633
     31 H          63.6556   90.6597   13.1643 H       1  UNL1        0.2884
     32 H          63.7070   92.2510   13.7750 H       1  UNL1        0.2884
@<TRIPOS>BOND
     1    11    12    2
     2    12    13    1
     3    12     5    1
     4     5     6   ar
     5     6     7   ar
     6     7     8   ar
     7     8     4    1
     8     4     3    1
     9     3     2    1
    10     2     1    1
    11     1    17    1
    12    17    18    1
    13    18    19    1
    14    19    20    1
    15    20    21    1
    16    21    22   ar
    17    22    23   ar
    18    23    24   ar
    19    24    27    1
    20    27    28    2
    21    27    29    1
    22    24    25   ar
    23    25    26   ar
    24     8     9   ar
    25     9    10   ar
    26    10     5   ar
    27    26    21   ar
    28    11    14    1
    29    13    15    1
    30    13    16    1
    31    28    30    1
    32    29    31    1
    33    29    32    1
@<TRIPOS>MOLECULE
*****
 32 33 0 0 0
SMALL
GASTEIGER

@<TRIPOS>ATOM
      1 C          60.3135   87.7730    8.5858 C.3     1  UNL1        0.0040
      2 C          60.4959   88.0822   10.0422 C.3     1  UNL1        0.0473
      3 C          61.8148   88.5940   10.5408 C.3     1  UNL1        0.2054
      4 O          62.0526   88.7443   12.0141 O.3     1  UNL1       -0.4755
      5 C          65.3148   91.4640   13.5010 C.ar    1  UNL1        0.0815
      6 C          64.5901   91.7881   12.2284 C.ar    1  UNL1        0.0105
      7 C          63.5027   90.8816   11.7328 C.ar    1  UNL1        0.0371
      8 C          63.1400   89.6509   12.5098 C.ar    1  UNL1        0.1386
      9 C          63.8647   89.3268   13.7824 C.ar    1  UNL1        0.0371
     10 C          64.9521   90.2333   14.2781 C.ar    1  UNL1        0.0105
     11 N          66.1154   93.3590   15.0879 N.2     1  UNL1       -0.0994
     12 C          66.4022   92.3706   13.9967 C.2     1  UNL1        0.3093
     13 N          67.7765   92.2888   13.4011 N.pl3   1  UNL1       -0.2466
     14 H          66.8291   93.9540   15.4132 H       1  UNL1        0.3633
     15 H          68.4902   92.8838   13.7264 H       1  UNL1        0.2884
     16 H          67.9647   91.6401   12.6849 H       1  UNL1        0.2884
     17 C          60.0367   86.3656    8.1469 C.3     1  UNL1        0.0040
     18 C          61.1483   85.5167    7.6049 C.3     1  UNL1        0.0473
     19 C          62.5434   85.6827    8.1303 C.3     1  UNL1        0.2054
     20 O          63.3098   84.4875    8.6141 O.3     1  UNL1       -0.4755
     21 C          63.3755   84.1824   10.0813 C.ar    1  UNL1        0.1386
     22 C          62.5433   84.9701   11.0492 C.ar    1  UNL1        0.0371
     23 C          62.6090   84.6649   12.5163 C.ar    1  UNL1        0.0105
     24 C          63.5069   83.5721   13.0156 C.ar    1  UNL1        0.0815
     25 C          64.3392   82.7843   12.0477 C.ar    1  UNL1        0.0105
     26 C          64.2735   83.0895   10.5806 C.ar    1  UNL1        0.0371
     27 C          63.5726   83.2670   14.4828 C.2     1  UNL1        0.3093
     28 N          62.5491   82.3661   15.1081 N.2     1  UNL1       -0.0994
     29 N          64.6618   83.8626   15.3247 N.pl3   1  UNL1       -0.2466
     30 H          61.8342   81.9751   14.5555 H       1  UNL1        0.3633
     31 H          65.3335   84.4539   14.9143 H       1  UNL1        0.2884
     32 H          64.7049   83.6624   16.2877 H       1  UNL1        0.2884
@<TRIPOS>BOND
     1    11    12    2
     2    12    13    1
     3    12     5    1
     4     5     6   ar
     5     6     7   ar
     6     7     8   ar
     7     8     4    1
     8     4     3    1
     9     3     2    1
    10     2     1    1
    11     1    17    1
    12    17    18    1
    13    18    19    1
    14    19    20    1
    15    20    21    1
    16    21    22   ar
    17    22    23   ar
    18    23    24   ar
    19    24    27    1
    20    27    28    2
    21    27    29    1
    22    24    25   ar
    23    25    26   ar
    24     8     9   ar
    25     9    10   ar
    26    10     5   ar
    27    26    21   ar
    28    11    14    1
    29    13    15    1
    30    13    16    1
    31    28    30    1
    32    29    31    1
    33    29    32    1
@<TRIPOS>MOLECULE
*****
 32 33 0 0 0
SMALL
GASTEIGER

@<TRIPOS>ATOM
      1 C          60.4020   86.3906    8.7332 C.3     1  UNL1        0.0040
      2 C          61.3605   85.6958    7.8120 C.3     1  UNL1        0.0473
      3 C          62.8055   85.5650    8.1928 C.3     1  UNL1        0.2054
      4 O          63.3254   84.2636    8.7276 O.3     1  UNL1       -0.4755
      5 C          63.5815   83.5982   13.1707 C.ar    1  UNL1        0.0815
      6 C          64.3202   82.6905   12.2326 C.ar    1  UNL1        0.0105
      7 C          64.2349   82.9123   10.7515 C.ar    1  UNL1        0.0371
      8 C          63.4107   84.0418   10.2086 C.ar    1  UNL1        0.1386
      9 C          62.6720   84.9496   11.1467 C.ar    1  UNL1        0.0371
     10 C          62.7573   84.7278   12.6278 C.ar    1  UNL1        0.0105
     11 N          64.6857   84.1195   15.4639 N.2     1  UNL1       -0.0994
     12 C          63.6668   83.3764   14.6518 C.2     1  UNL1        0.3093
     13 N          62.7333   82.4115   15.3207 N.pl3   1  UNL1       -0.2466
     14 H          64.7417   83.9739   16.4360 H       1  UNL1        0.3633
     15 H          62.7893   82.2660   16.2927 H       1  UNL1        0.2884
     16 H          62.0645   81.9238   14.7876 H       1  UNL1        0.2884
     17 C          60.1648   87.8653    8.5952 C.3     1  UNL1        0.0040
     18 C          60.5466   88.7939    9.7097 C.3     1  UNL1        0.0473
     19 C          61.9220   88.7261   10.3044 C.3     1  UNL1        0.2054
     20 O          62.0969   88.7488   11.7941 O.3     1  UNL1       -0.4755
     21 C          63.1627   89.6051   12.4111 C.ar    1  UNL1        0.1386
     22 C          63.5804   90.8810   11.7421 C.ar    1  UNL1        0.0371
     23 C          64.6463   91.7373   12.3591 C.ar    1  UNL1        0.0105
     24 C          65.2944   91.3178   13.6451 C.ar    1  UNL1        0.0815
     25 C          64.8767   90.0418   14.3142 C.ar    1  UNL1        0.0105
     26 C          63.8109   89.1855   13.6972 C.ar    1  UNL1        0.0371
     27 C          66.3602   92.1741   14.2621 C.2     1  UNL1        0.3093
     28 N          66.0049   93.5093   14.8462 N.2     1  UNL1       -0.0994
     29 N          67.7813   91.6953   14.2951 N.pl3   1  UNL1       -0.2466
     30 H          65.0721   93.8235   14.8246 H       1  UNL1        0.3633
     31 H          68.0146   90.8190   13.9118 H       1  UNL1        0.2884
     32 H          68.4809   92.2573   14.7001 H       1  UNL1        0.2884
@<TRIPOS>BOND
     1    11    12    2
     2    12    13    1
     3    12     5    1
     4     5     6   ar
     5     6     7   ar
     6     7     8   ar
     7     8     4    1
     8     4     3    1
     9     3     2    1
    10     2     1    1
    11     1    17    1
    12    17    18    1
    13    18    19    1
    14    19    20    1
    15    20    21    1
    16    21    22   ar
    17    22    23   ar
    18    23    24   ar
    19    24    27    1
    20    27    28    2
    21    27    29    1
    22    24    25   ar
    23    25    26   ar
    24     8     9   ar
    25     9    10   ar
    26    10     5   ar
    27    26    21   ar
    28    11    14    1
    29    13    15    1
    30    13    16    1
    31    28    30    1
    32    29    31    1
    33    29    32    1
@<TRIPOS>MOLECULE
*****
 32 33 0 0 0
SMALL
GASTEIGER

@<TRIPOS>ATOM
      1 C          61.7936   90.2190   11.4278 C.3     1  UNL1        0.0040
      2 C          60.6767   90.1062   10.4329 C.3     1  UNL1        0.0473
      3 C          60.0360   88.7752   10.1722 C.3     1  UNL1        0.2054
      4 O          60.6567   87.8228    9.1937 O.3     1  UNL1       -0.4755
      5 C          63.2750   84.4724   10.6667 C.ar    1  UNL1        0.0815
      6 C          63.1927   84.7701    9.1988 C.ar    1  UNL1        0.0105
      7 C          62.3199   85.8869    8.7079 C.ar    1  UNL1        0.0371
      8 C          61.5295   86.7060    9.6847 C.ar    1  UNL1        0.1386
      9 C          61.6118   86.4083   11.1525 C.ar    1  UNL1        0.0371
     10 C          62.4846   85.2915   11.6435 C.ar    1  UNL1        0.0105
     11 N          64.5013   82.2218   10.2415 N.2     1  UNL1       -0.0994
     12 C          64.1478   83.3556   11.1576 C.2     1  UNL1        0.3093
     13 N          64.6670   83.3727   12.5648 N.pl3   1  UNL1       -0.2466
     14 H          65.0741   81.4888   10.5638 H       1  UNL1        0.3633
     15 H          65.2398   82.6397   12.8870 H       1  UNL1        0.2884
     16 H          64.4350   84.1169   13.1661 H       1  UNL1        0.2884
     17 C          63.1984   90.4496   10.9554 C.3     1  UNL1        0.0040
     18 C          63.9585   91.6553   11.4227 C.3     1  UNL1        0.0473
     19 C          64.7281   91.6045   12.7092 C.3     1  UNL1        0.2054
     20 O          63.9985   91.5106   14.0165 O.3     1  UNL1       -0.4755
     21 C          63.8403   90.1813   14.6933 C.ar    1  UNL1        0.1386
     22 C          64.2580   88.9257   13.9870 C.ar    1  UNL1        0.0371
     23 C          64.0998   87.5964   14.6637 C.ar    1  UNL1        0.0105
     24 C          63.5238   87.5228   16.0468 C.ar    1  UNL1        0.0815
     25 C          63.1060   88.7784   16.7531 C.ar    1  UNL1        0.0105
     26 C          63.2642   90.1077   16.0764 C.ar    1  UNL1        0.0371
     27 C          63.3656   86.1935   16.7235 C.2     1  UNL1        0.3093
     28 N          62.3482   86.0226   17.8124 N.2     1  UNL1       -0.0994
     29 N          64.2248   85.0351   16.3114 N.pl3   1  UNL1       -0.2466
     30 H          61.7843   86.7829   18.0829 H       1  UNL1        0.3633
     31 H          64.8926   85.1472   15.5967 H       1  UNL1        0.2884
     32 H          64.1210   84.1626   16.7556 H       1  UNL1        0.2884
@<TRIPOS>BOND
     1    11    12    2
     2    12    13    1
     3    12     5    1
     4     5     6   ar
     5     6     7   ar
     6     7     8   ar
     7     8     4    1
     8     4     3    1
     9     3     2    1
    10     2     1    1
    11     1    17    1
    12    17    18    1
    13    18    19    1
    14    19    20    1
    15    20    21    1
    16    21    22   ar
    17    22    23   ar
    18    23    24   ar
    19    24    27    1
    20    27    28    2
    21    27    29    1
    22    24    25   ar
    23    25    26   ar
    24     8     9   ar
    25     9    10   ar
    26    10     5   ar
    27    26    21   ar
    28    11    14    1
    29    13    15    1
    30    13    16    1
    31    28    30    1
    32    29    31    1
    33    29    32    1
@<TRIPOS>MOLECULE
*****
 32 33 0 0 0
SMALL
GASTEIGER

@<TRIPOS>ATOM
      1 C          62.8398   89.3575   15.9665 C.3     1  UNL1        0.0040
      2 C          63.1464   88.4937   17.1539 C.3     1  UNL1        0.0473
      3 C          62.5969   87.1000   17.2294 C.3     1  UNL1        0.2054
      4 O          63.5215   85.9229   17.1307 O.3     1  UNL1       -0.4755
      5 C          63.7266   83.5360   13.3214 C.ar    1  UNL1        0.0815
      6 C          64.8704   84.4242   13.7125 C.ar    1  UNL1        0.0105
      7 C          64.8020   85.2198   14.9823 C.ar    1  UNL1        0.0371
      8 C          63.5899   85.1273   15.8610 C.ar    1  UNL1        0.1386
      9 C          62.4461   84.2391   15.4699 C.ar    1  UNL1        0.0371
     10 C          62.5145   83.4435   14.2001 C.ar    1  UNL1        0.0105
     11 N          64.8586   83.0378   11.0366 N.2     1  UNL1       -0.0994
     12 C          63.7950   82.7404   12.0517 C.2     1  UNL1        0.3093
     13 N          62.7999   81.6474   11.7969 N.pl3   1  UNL1       -0.2466
     14 H          64.9035   82.5156   10.2032 H       1  UNL1        0.3633
     15 H          62.8448   81.1252   10.9635 H       1  UNL1        0.2884
     16 H          62.1018   81.4522   12.4631 H       1  UNL1        0.2884
     17 C          63.8949   90.2648   15.4066 C.3     1  UNL1        0.0040
     18 C          64.2217   90.2218   13.9433 C.3     1  UNL1        0.0473
     19 C          63.2132   89.6971   12.9647 C.3     1  UNL1        0.2054
     20 O          63.3389   88.2993   12.4351 O.3     1  UNL1       -0.4755
     21 C          62.4444   87.8350   11.3240 C.ar    1  UNL1        0.1386
     22 C          61.9364   88.8169   10.3102 C.ar    1  UNL1        0.0371
     23 C          61.0419   88.3526    9.1992 C.ar    1  UNL1        0.0105
     24 C          60.6555   86.9066    9.1019 C.ar    1  UNL1        0.0815
     25 C          61.1635   85.9246   10.1158 C.ar    1  UNL1        0.0105
     26 C          62.0580   86.3889   11.2268 C.ar    1  UNL1        0.0371
     27 C          59.7610   86.4423    7.9909 C.2     1  UNL1        0.3093
     28 N          58.4800   87.1688    7.7061 N.2     1  UNL1       -0.0994
     29 N          60.1476   85.2516    7.1647 N.pl3   1  UNL1       -0.2466
     30 H          58.2262   87.9504    8.2484 H       1  UNL1        0.3633
     31 H          60.9884   84.7748    7.3516 H       1  UNL1        0.2884
     32 H          59.5605   84.9469    6.4354 H       1  UNL1        0.2884
@<TRIPOS>BOND
     1    11    12    2
     2    12    13    1
     3    12     5    1
     4     5     6   ar
     5     6     7   ar
     6     7     8   ar
     7     8     4    1
     8     4     3    1
     9     3     2    1
    10     2     1    1
    11     1    17    1
    12    17    18    1
    13    18    19    1
    14    19    20    1
    15    20    21    1
    16    21    22   ar
    17    22    23   ar
    18    23    24   ar
    19    24    27    1
    20    27    28    2
    21    27    29    1
    22    24    25   ar
    23    25    26   ar
    24     8     9   ar
    25     9    10   ar
    26    10     5   ar
    27    26    21   ar
    28    11    14    1
    29    13    15    1
    30    13    16    1
    31    28    30    1
    32    29    31    1
    33    29    32    1
@<TRIPOS>MOLECULE
*****
 32 33 0 0 0
SMALL
GASTEIGER

@<TRIPOS>ATOM
      1 C          60.8842   88.0815    9.2049 C.3     1  UNL1        0.0040
      2 C          61.6257   88.4254   10.4627 C.3     1  UNL1        0.0473
      3 C          62.5160   89.6319   10.5023 C.3     1  UNL1        0.2054
      4 O          62.4578   90.5689   11.6722 O.3     1  UNL1       -0.4755
      5 C          66.2413   91.7367   13.8102 C.ar    1  UNL1        0.0815
      6 C          65.9024   92.3622   12.4897 C.ar    1  UNL1        0.0105
      7 C          64.6412   91.9730   11.7770 C.ar    1  UNL1        0.0371
      8 C          63.7190   90.9582   12.3848 C.ar    1  UNL1        0.1386
      9 C          64.0578   90.3327   13.7053 C.ar    1  UNL1        0.0371
     10 C          65.3190   90.7219   14.4180 C.ar    1  UNL1        0.0105
     11 N          68.8272   91.9869   13.8331 N.2     1  UNL1       -0.0994
     12 C          67.5025   92.1260   14.5229 C.2     1  UNL1        0.3093
     13 N          67.4390   92.6543   15.9253 N.pl3   1  UNL1       -0.2466
     14 H          69.6549   92.2424   14.3009 H       1  UNL1        0.3633
     15 H          68.2667   92.9098   16.3930 H       1  UNL1        0.2884
     16 H          66.5695   92.7456   16.3780 H       1  UNL1        0.2884
     17 C          60.5460   86.6521    8.9007 C.3     1  UNL1        0.0040
     18 C          61.3929   85.8688    7.9419 C.3     1  UNL1        0.0473
     19 C          62.8448   85.6377    8.2397 C.3     1  UNL1        0.2054
     20 O          63.3046   84.2994    8.7374 O.3     1  UNL1       -0.4755
     21 C          63.3942   84.0379   10.2117 C.ar    1  UNL1        0.1386
     22 C          64.3220   82.9796   10.7306 C.ar    1  UNL1        0.0371
     23 C          64.4117   82.7181   12.2049 C.ar    1  UNL1        0.0105
     24 C          63.5736   83.5148   13.1603 C.ar    1  UNL1        0.0815
     25 C          62.6458   84.5731   12.6414 C.ar    1  UNL1        0.0105
     26 C          62.5561   84.8346   11.1671 C.ar    1  UNL1        0.0371
     27 C          63.6633   83.2532   14.6346 C.2     1  UNL1        0.3093
     28 N          64.7423   83.9050   15.4476 N.2     1  UNL1       -0.0994
     29 N          62.6740   82.3400   15.2958 N.pl3   1  UNL1       -0.2466
     30 H          65.3916   84.5044   15.0136 H       1  UNL1        0.3633
     31 H          61.9658   81.9122   14.7622 H       1  UNL1        0.2884
     32 H          62.7329   82.1683   16.2635 H       1  UNL1        0.2884
@<TRIPOS>BOND
     1    11    12    2
     2    12    13    1
     3    12     5    1
     4     5     6   ar
     5     6     7   ar
     6     7     8   ar
     7     8     4    1
     8     4     3    1
     9     3     2    1
    10     2     1    1
    11     1    17    1
    12    17    18    1
    13    18    19    1
    14    19    20    1
    15    20    21    1
    16    21    22   ar
    17    22    23   ar
    18    23    24   ar
    19    24    27    1
    20    27    28    2
    21    27    29    1
    22    24    25   ar
    23    25    26   ar
    24     8     9   ar
    25     9    10   ar
    26    10     5   ar
    27    26    21   ar
    28    11    14    1
    29    13    15    1
    30    13    16    1
    31    28    30    1
    32    29    31    1
    33    29    32    1
@<TRIPOS>MOLECULE
*****
 32 33 0 0 0
SMALL
GASTEIGER

@<TRIPOS>ATOM
      1 C          62.7667   90.0010   10.9403 C.3     1  UNL1        0.0040
      2 C          61.5509   90.1291   10.0709 C.3     1  UNL1        0.0473
      3 C          60.7279   88.9170    9.7493 C.3     1  UNL1        0.2054
      4 O          61.3164   87.8064    8.9307 O.3     1  UNL1       -0.4755
      5 C          63.0320   84.1773   10.9648 C.ar    1  UNL1        0.0815
      6 C          63.2737   84.4015    9.5015 C.ar    1  UNL1        0.0105
      7 C          62.7018   85.6111    8.8235 C.ar    1  UNL1        0.0371
      8 C          61.8883   86.5967    9.6088 C.ar    1  UNL1        0.1386
      9 C          61.6466   86.3726   11.0721 C.ar    1  UNL1        0.0371
     10 C          62.2184   85.1629   11.7501 C.ar    1  UNL1        0.0105
     11 N          65.0809   82.7105   11.5974 N.2     1  UNL1       -0.0994
     12 C          63.6038   82.9677   11.6428 C.2     1  UNL1        0.3093
     13 N          62.6986   82.0152   12.3662 N.pl3   1  UNL1       -0.2466
     14 H          65.4562   81.9165   12.0424 H       1  UNL1        0.3633
     15 H          63.0739   81.2213   12.8112 H       1  UNL1        0.2884
     16 H          61.7291   82.1840   12.3961 H       1  UNL1        0.2884
     17 C          62.7734   90.6040   12.3137 C.3     1  UNL1        0.0040
     18 C          63.8374   90.2169   13.2975 C.3     1  UNL1        0.0473
     19 C          63.8747   90.8581   14.6531 C.3     1  UNL1        0.2054
     20 O          63.6673   90.0247   15.8829 O.3     1  UNL1       -0.4755
     21 C          63.6931   88.5280   15.7877 C.ar    1  UNL1        0.1386
     22 C          64.3131   87.8629   14.5947 C.ar    1  UNL1        0.0371
     23 C          64.3388   86.3661   14.4995 C.ar    1  UNL1        0.0105
     24 C          63.7446   85.5345   15.5973 C.ar    1  UNL1        0.0815
     25 C          63.1246   86.1995   16.7904 C.ar    1  UNL1        0.0105
     26 C          63.0989   87.6963   16.8856 C.ar    1  UNL1        0.0371
     27 C          63.7704   84.0377   15.5021 C.2     1  UNL1        0.3093
     28 N          65.0656   83.3245   15.2491 N.2     1  UNL1       -0.0994
     29 N          62.5011   83.2542   15.6598 N.pl3   1  UNL1       -0.2466
     30 H          65.8987   83.8387   15.1456 H       1  UNL1        0.3633
     31 H          61.6511   83.7223   15.8259 H       1  UNL1        0.2884
     32 H          62.5180   82.2718   15.5973 H       1  UNL1        0.2884
@<TRIPOS>BOND
     1    11    12    2
     2    12    13    1
     3    12     5    1
     4     5     6   ar
     5     6     7   ar
     6     7     8   ar
     7     8     4    1
     8     4     3    1
     9     3     2    1
    10     2     1    1
    11     1    17    1
    12    17    18    1
    13    18    19    1
    14    19    20    1
    15    20    21    1
    16    21    22   ar
    17    22    23   ar
    18    23    24   ar
    19    24    27    1
    20    27    28    2
    21    27    29    1
    22    24    25   ar
    23    25    26   ar
    24     8     9   ar
    25     9    10   ar
    26    10     5   ar
    27    26    21   ar
    28    11    14    1
    29    13    15    1
    30    13    16    1
    31    28    30    1
    32    29    31    1
    33    29    32    1
@<TRIPOS>MOLECULE
*****
 32 33 0 0 0
SMALL
GASTEIGER

@<TRIPOS>ATOM
      1 C          63.0796   88.8581   17.1255 C.3     1  UNL1        0.0040
      2 C          62.5605   87.4603   17.2895 C.3     1  UNL1        0.0473
      3 C          63.3579   86.2989   16.7744 C.3     1  UNL1        0.2054
      4 O          63.6492   86.1808   15.3078 O.3     1  UNL1       -0.4755
      5 C          62.9575   82.2744   13.1838 C.ar    1  UNL1        0.0815
      6 C          62.3857   82.4953   14.5528 C.ar    1  UNL1        0.0105
      7 C          62.6163   83.7974   15.2608 C.ar    1  UNL1        0.0371
      8 C          63.4187   84.8787   14.5998 C.ar    1  UNL1        0.1386
      9 C          63.9905   84.6578   13.2308 C.ar    1  UNL1        0.0371
     10 C          63.7599   83.3557   12.5228 C.ar    1  UNL1        0.0105
     11 N          62.2738   79.7687   13.2478 N.2     1  UNL1       -0.0994
     12 C          62.7269   80.9723   12.4758 C.2     1  UNL1        0.3093
     13 N          62.9494   80.8737   10.9957 N.pl3   1  UNL1       -0.2466
     14 H          62.1225   78.9141   12.7831 H       1  UNL1        0.3633
     15 H          62.7980   80.0190   10.5310 H       1  UNL1        0.2884
     16 H          63.2467   81.6636   10.4889 H       1  UNL1        0.2884
     17 C          63.4419   89.3684   15.7623 C.3     1  UNL1        0.0040
     18 C          63.8795   90.7923   15.5864 C.3     1  UNL1        0.0473
     19 C          64.7215   91.1778   14.4064 C.3     1  UNL1        0.2054
     20 O          64.0676   91.5809   13.1180 O.3     1  UNL1       -0.4755
     21 C          63.4374   90.5412   12.2394 C.ar    1  UNL1        0.1386
     22 C          62.7822   90.9444   10.9517 C.ar    1  UNL1        0.0371
     23 C          62.1520   89.9047   10.0731 C.ar    1  UNL1        0.0105
     24 C          62.1769   88.4618   10.4823 C.ar    1  UNL1        0.0815
     25 C          62.8321   88.0586   11.7700 C.ar    1  UNL1        0.0105
     26 C          63.4623   89.0983   12.6486 C.ar    1  UNL1        0.0371
     27 C          61.5467   87.4222    9.6037 C.2     1  UNL1        0.3093
     28 N          62.4065   86.4181    8.8946 N.2     1  UNL1       -0.0994
     29 N          60.0568   87.3865    9.4342 N.pl3   1  UNL1       -0.2466
     30 H          63.3844   86.4415    9.0059 H       1  UNL1        0.3633
     31 H          59.4925   88.0454    9.8995 H       1  UNL1        0.2884
     32 H          59.6432   86.7041    8.8575 H       1  UNL1        0.2884
@<TRIPOS>BOND
     1    11    12    2
     2    12    13    1
     3    12     5    1
     4     5     6   ar
     5     6     7   ar
     6     7     8   ar
     7     8     4    1
     8     4     3    1
     9     3     2    1
    10     2     1    1
    11     1    17    1
    12    17    18    1
    13    18    19    1
    14    19    20    1
    15    20    21    1
    16    21    22   ar
    17    22    23   ar
    18    23    24   ar
    19    24    27    1
    20    27    28    2
    21    27    29    1
    22    24    25   ar
    23    25    26   ar
    24     8     9   ar
    25     9    10   ar
    26    10     5   ar
    27    26    21   ar
    28    11    14    1
    29    13    15    1
    30    13    16    1
    31    28    30    1
    32    29    31    1
    33    29    32    1
