@<TRIPOS>MOLECULE
*****
 29 31 0 0 0
SMALL
GASTEIGER

@<TRIPOS>ATOM
      1 C          63.7154   90.0697   13.0305 C.ar    1  UNL1        0.1592
      2 C          64.1516   89.0514   14.0418 C.ar    1  UNL1        0.0398
      3 C          63.8391   87.6000   13.8277 C.ar    1  UNL1        0.0179
      4 C          63.0904   87.1669   12.6022 C.ar    1  UNL1        0.0516
      5 C          62.6541   88.1852   11.5909 C.ar    1  UNL1        0.0292
      6 C          62.9666   89.6366   11.8050 C.ar    1  UNL1        0.0934
      7 CL         62.5304   90.6548   10.7937 Cl      1  UNL1       -0.0790
      8 N          62.7778   85.7155   12.3881 N.am    1  UNL1       -0.2791
      9 C          63.5179   84.6666   13.1640 C.2     1  UNL1        0.2685
     10 O          64.5705   85.0690   14.1540 O.2     1  UNL1       -0.2681
     11 H          62.0870   85.4514   11.7384 H       1  UNL1        0.1552
     12 C          63.2054   83.2152   12.9498 C.ar    1  UNL1        0.1475
     13 N          63.2889   82.6252   11.5732 N.ar    1  UNL1       -0.2380
     14 C          62.9763   81.1739   11.3591 C.ar    1  UNL1        0.0991
     15 C          62.5803   80.3125   12.5215 C.ar    1  UNL1        0.0219
     16 C          62.4969   80.9025   13.8981 C.ar    1  UNL1        0.0174
     17 C          62.8094   82.3539   14.1123 C.ar    1  UNL1        0.0640
     18 N          62.7259   82.9438   15.4888 N.pl3   1  UNL1       -0.3557
     19 H          62.4660   82.3785   16.2517 H       1  UNL1        0.1424
     20 H          62.9311   83.8964   15.6294 H       1  UNL1        0.1424
     21 O          64.0279   91.5210   13.2446 O.3     1  UNL1       -0.4214
     22 C          67.8076   92.7186   15.3729 C.ar    1  UNL1        0.0163
     23 C          66.4998   92.7230   16.1073 C.ar    1  UNL1        0.1009
     24 N          65.2399   92.3238   15.3979 N.ar    1  UNL1       -0.1927
     25 C          65.2878   91.9202   13.9540 C.ar    1  UNL1        0.3246
     26 N          66.5957   91.9158   13.2196 N.ar    1  UNL1       -0.1927
     27 C          67.8556   92.3150   13.9290 C.ar    1  UNL1        0.1009
     28 C          69.4596   94.5636   16.1583 C.3     1  UNL1        0.0051
     29 C          69.0676   93.1177   16.0823 C.3     1  UNL1        0.0295
@<TRIPOS>BOND
     1    28    29    1
     2    29    22    1
     3    22    23   ar
     4    23    24   ar
     5    24    25   ar
     6    25    21    1
     7    21     1    1
     8     1     2   ar
     9     2     3   ar
    10     3     4   ar
    11     4     8    1
    12     8     9   am
    13     9    10    2
    14     9    12    1
    15    12    13   ar
    16    13    14   ar
    17    14    15   ar
    18    15    16   ar
    19    16    17   ar
    20    17    18    1
    21     4     5   ar
    22     5     6   ar
    23     6     7    1
    24    25    26   ar
    25    26    27   ar
    26    27    22   ar
    27     6     1   ar
    28    17    12   ar
    29     8    11    1
    30    18    19    1
    31    18    20    1
@<TRIPOS>MOLECULE
*****
 29 31 0 0 0
SMALL
GASTEIGER

@<TRIPOS>ATOM
      1 C          63.7858   90.0771   12.9323 C.ar    1  UNL1        0.1592
      2 C          64.2058   89.1112   14.0004 C.ar    1  UNL1        0.0398
      3 C          63.8517   87.6587   13.8794 C.ar    1  UNL1        0.0179
      4 C          63.0776   87.1719   12.6903 C.ar    1  UNL1        0.0516
      5 C          62.6576   88.1377   11.6223 C.ar    1  UNL1        0.0292
      6 C          63.0117   89.5903   11.7433 C.ar    1  UNL1        0.0934
      7 CL         62.5916   90.5561   10.6752 Cl      1  UNL1       -0.0790
      8 N          62.7235   85.7193   12.5694 N.am    1  UNL1       -0.2791
      9 C          63.3656   84.7127   13.4773 C.2     1  UNL1        0.2685
     10 O          64.3618   85.1586   14.5063 O.2     1  UNL1       -0.2681
     11 H          62.0696   85.4266   11.8941 H       1  UNL1        0.1552
     12 C          63.0115   83.2601   13.3563 C.ar    1  UNL1        0.1475
     13 N          62.0010   82.6546   14.2851 N.ar    1  UNL1       -0.2380
     14 C          61.6469   81.2020   14.1641 C.ar    1  UNL1        0.0991
     15 C          62.3032   80.3550   13.1144 C.ar    1  UNL1        0.0219
     16 C          63.3136   80.9605   12.1857 C.ar    1  UNL1        0.0174
     17 C          63.6677   82.4131   12.3067 C.ar    1  UNL1        0.0640
     18 N          64.6781   83.0186   11.3780 N.pl3   1  UNL1       -0.3557
     19 H          65.1088   82.4626   10.6891 H       1  UNL1        0.1424
     20 H          64.9106   83.9719   11.4574 H       1  UNL1        0.1424
     21 O          64.1399   91.5296   13.0533 O.3     1  UNL1       -0.4214
     22 C          67.8431   92.7639   15.2922 C.ar    1  UNL1        0.0163
     23 C          67.9409   92.3402   13.8566 C.ar    1  UNL1        0.1009
     24 N          66.7064   91.9287   13.1103 N.ar    1  UNL1       -0.1927
     25 C          65.3743   91.9410   13.7996 C.ar    1  UNL1        0.3246
     26 N          65.2765   92.3648   15.2351 N.ar    1  UNL1       -0.1927
     27 C          66.5109   92.7762   15.9814 C.ar    1  UNL1        0.1009
     28 C          69.4006   94.6300   16.2096 C.3     1  UNL1        0.0051
     29 C          69.0775   93.1753   16.0385 C.3     1  UNL1        0.0295
@<TRIPOS>BOND
     1    28    29    1
     2    29    22    1
     3    22    23   ar
     4    23    24   ar
     5    24    25   ar
     6    25    21    1
     7    21     1    1
     8     1     2   ar
     9     2     3   ar
    10     3     4   ar
    11     4     8    1
    12     8     9   am
    13     9    10    2
    14     9    12    1
    15    12    13   ar
    16    13    14   ar
    17    14    15   ar
    18    15    16   ar
    19    16    17   ar
    20    17    18    1
    21     4     5   ar
    22     5     6   ar
    23     6     7    1
    24    25    26   ar
    25    26    27   ar
    26    27    22   ar
    27     6     1   ar
    28    17    12   ar
    29     8    11    1
    30    18    19    1
    31    18    20    1
@<TRIPOS>MOLECULE
*****
 29 31 0 0 0
SMALL
GASTEIGER

@<TRIPOS>ATOM
      1 C          62.1165   88.7004   11.4074 C.ar    1  UNL1        0.1592
      2 C          63.1015   89.3750   12.3156 C.ar    1  UNL1        0.0398
      3 C          63.7391   90.6683   11.9022 C.ar    1  UNL1        0.0179
      4 C          63.3915   91.2871   10.5807 C.ar    1  UNL1        0.0516
      5 C          62.4065   90.6126    9.6726 C.ar    1  UNL1        0.0292
      6 C          61.7689   89.3192   10.0859 C.ar    1  UNL1        0.0934
      7 CL         60.7839   88.6447    9.1778 Cl      1  UNL1       -0.0790
      8 N          64.0291   92.5805   10.1673 N.am    1  UNL1       -0.2791
      9 C          65.3710   92.9644   10.7167 C.2     1  UNL1        0.2685
     10 O          66.0754   92.0550   11.6795 O.2     1  UNL1       -0.2681
     11 H          63.5668   93.1773    9.5354 H       1  UNL1        0.1552
     12 C          66.0085   94.2577   10.3033 C.ar    1  UNL1        0.1475
     13 N          65.3837   95.5624   10.7003 N.ar    1  UNL1       -0.2380
     14 C          66.0212   96.8557   10.2869 C.ar    1  UNL1        0.0991
     15 C          67.2835   96.8444    9.4766 C.ar    1  UNL1        0.0219
     16 C          67.9082   95.5398    9.0797 C.ar    1  UNL1        0.0174
     17 C          67.2707   94.2464    9.4930 C.ar    1  UNL1        0.0640
     18 N          67.8955   92.9418    9.0961 N.pl3   1  UNL1       -0.3557
     19 H          68.7240   92.9343    8.5643 H       1  UNL1        0.1424
     20 H          67.4771   92.0929    9.3674 H       1  UNL1        0.1424
     21 O          61.4790   87.4071   11.8208 O.3     1  UNL1       -0.4214
     22 C          63.4666   83.4968   10.8167 C.ar    1  UNL1        0.0163
     23 C          63.1040   83.8106   12.2379 C.ar    1  UNL1        0.1009
     24 N          62.4414   85.1140   12.5726 N.ar    1  UNL1       -0.1927
     25 C          62.1415   86.1037   11.4861 C.ar    1  UNL1        0.3246
     26 N          62.5041   85.7899   10.0649 N.ar    1  UNL1       -0.1927
     27 C          63.1667   84.4864    9.7301 C.ar    1  UNL1        0.1009
     28 C          63.3150   80.9358   10.4064 C.3     1  UNL1        0.0051
     29 C          64.1291   82.1933   10.4819 C.3     1  UNL1        0.0295
@<TRIPOS>BOND
     1    28    29    1
     2    29    22    1
     3    22    23   ar
     4    23    24   ar
     5    24    25   ar
     6    25    21    1
     7    21     1    1
     8     1     2   ar
     9     2     3   ar
    10     3     4   ar
    11     4     8    1
    12     8     9   am
    13     9    10    2
    14     9    12    1
    15    12    13   ar
    16    13    14   ar
    17    14    15   ar
    18    15    16   ar
    19    16    17   ar
    20    17    18    1
    21     4     5   ar
    22     5     6   ar
    23     6     7    1
    24    25    26   ar
    25    26    27   ar
    26    27    22   ar
    27     6     1   ar
    28    17    12   ar
    29     8    11    1
    30    18    19    1
    31    18    20    1
@<TRIPOS>MOLECULE
*****
 29 31 0 0 0
SMALL
GASTEIGER

@<TRIPOS>ATOM
      1 C          63.9509   90.0170   13.3869 C.ar    1  UNL1        0.1592
      2 C          64.5306   89.3123   14.5774 C.ar    1  UNL1        0.0398
      3 C          64.4133   87.8217   14.6971 C.ar    1  UNL1        0.0179
      4 C          63.7163   87.0358   13.6263 C.ar    1  UNL1        0.0516
      5 C          63.1367   87.7405   12.4358 C.ar    1  UNL1        0.0292
      6 C          63.2540   89.2312   12.3160 C.ar    1  UNL1        0.0934
      7 CL         62.6743   89.9359   11.1255 Cl      1  UNL1       -0.0790
      8 N          63.5990   85.5451   13.7460 N.am    1  UNL1       -0.2791
      9 C          62.7616   84.7776   12.7664 C.2     1  UNL1        0.2685
     10 O          62.0415   85.5007   11.6671 O.2     1  UNL1       -0.2681
     11 H          64.0717   85.0706   14.4675 H       1  UNL1        0.1552
     12 C          62.6444   83.2871   12.8862 C.ar    1  UNL1        0.1475
     13 N          62.0535   82.6782   14.1232 N.ar    1  UNL1       -0.2380
     14 C          61.9362   81.1876   14.2430 C.ar    1  UNL1        0.0991
     15 C          62.4098   80.3058   13.1258 C.ar    1  UNL1        0.0219
     16 C          63.0007   80.9146   11.8888 C.ar    1  UNL1        0.0174
     17 C          63.1180   82.4053   11.7690 C.ar    1  UNL1        0.0640
     18 N          63.7088   83.0141   10.5320 N.pl3   1  UNL1       -0.3557
     19 H          64.0196   82.4354    9.7987 H       1  UNL1        0.1424
     20 H          63.7858   83.9924   10.4533 H       1  UNL1        0.1424
     21 O          64.0682   91.5076   13.2672 O.3     1  UNL1       -0.4214
     22 C          67.0459   93.3084   10.4140 C.ar    1  UNL1        0.0163
     23 C          67.5203   92.6406   11.6706 C.ar    1  UNL1        0.1009
     24 N          66.5278   92.0404   12.6216 N.ar    1  UNL1       -0.1927
     25 C          65.0608   92.1079   12.3161 C.ar    1  UNL1        0.3246
     26 N          64.5864   92.7757   11.0596 N.ar    1  UNL1       -0.1927
     27 C          65.5790   93.3759   10.1085 C.ar    1  UNL1        0.1009
     28 C          67.6043   94.9715    8.4977 C.3     1  UNL1        0.0051
     29 C          68.0385   93.9087    9.4630 C.3     1  UNL1        0.0295
@<TRIPOS>BOND
     1    28    29    1
     2    29    22    1
     3    22    23   ar
     4    23    24   ar
     5    24    25   ar
     6    25    21    1
     7    21     1    1
     8     1     2   ar
     9     2     3   ar
    10     3     4   ar
    11     4     8    1
    12     8     9   am
    13     9    10    2
    14     9    12    1
    15    12    13   ar
    16    13    14   ar
    17    14    15   ar
    18    15    16   ar
    19    16    17   ar
    20    17    18    1
    21     4     5   ar
    22     5     6   ar
    23     6     7    1
    24    25    26   ar
    25    26    27   ar
    26    27    22   ar
    27     6     1   ar
    28    17    12   ar
    29     8    11    1
    30    18    19    1
    31    18    20    1
@<TRIPOS>MOLECULE
*****
 29 31 0 0 0
SMALL
GASTEIGER

@<TRIPOS>ATOM
      1 C          64.3686   91.2162   12.9745 C.ar    1  UNL1        0.1592
      2 C          63.5501   90.8054   11.7864 C.ar    1  UNL1        0.0398
      3 C          63.0884   89.3849   11.6488 C.ar    1  UNL1        0.0179
      4 C          63.4450   88.3752   12.6992 C.ar    1  UNL1        0.0516
      5 C          64.2634   88.7860   13.8872 C.ar    1  UNL1        0.0292
      6 C          64.7252   90.2066   14.0249 C.ar    1  UNL1        0.0934
      7 CL         65.5436   90.6173   15.2129 Cl      1  UNL1       -0.0790
      8 N          62.9832   86.9547   12.5615 N.am    1  UNL1       -0.2791
      9 C          63.5474   85.8924   13.4577 C.2     1  UNL1        0.2685
     10 O          64.5734   86.2506   14.4917 O.2     1  UNL1       -0.2681
     11 H          62.3098   86.7196   11.8829 H       1  UNL1        0.1552
     12 C          63.0856   84.4720   13.3200 C.ar    1  UNL1        0.1475
     13 N          63.1649   83.7831   11.9899 N.ar    1  UNL1       -0.2380
     14 C          62.7031   82.3627   11.8522 C.ar    1  UNL1        0.0991
     15 C          62.1620   81.6310   13.0446 C.ar    1  UNL1        0.0219
     16 C          62.0826   82.3198   14.3747 C.ar    1  UNL1        0.0174
     17 C          62.5444   83.7403   14.5124 C.ar    1  UNL1        0.0640
     18 N          62.4650   84.4291   15.8425 N.pl3   1  UNL1       -0.3557
     19 H          62.1098   83.9489   16.6251 H       1  UNL1        0.1424
     20 H          62.7681   85.3615   15.9329 H       1  UNL1        0.1424
     21 O          64.8303   92.6367   13.1121 O.3     1  UNL1       -0.4214
     22 C          67.1155   94.5940    9.7659 C.ar    1  UNL1        0.0163
     23 C          66.5125   95.4329   10.8534 C.ar    1  UNL1        0.1009
     24 N          65.7508   94.7804   11.9688 N.ar    1  UNL1       -0.1927
     25 C          65.5921   93.2892   11.9967 C.ar    1  UNL1        0.3246
     26 N          66.1951   92.4503   10.9092 N.ar    1  UNL1       -0.1927
     27 C          66.9568   93.1027    9.7938 C.ar    1  UNL1        0.1009
     28 C          67.4965   96.6209    8.1858 C.3     1  UNL1        0.0051
     29 C          67.8772   95.2465    8.6505 C.3     1  UNL1        0.0295
@<TRIPOS>BOND
     1    28    29    1
     2    29    22    1
     3    22    23   ar
     4    23    24   ar
     5    24    25   ar
     6    25    21    1
     7    21     1    1
     8     1     2   ar
     9     2     3   ar
    10     3     4   ar
    11     4     8    1
    12     8     9   am
    13     9    10    2
    14     9    12    1
    15    12    13   ar
    16    13    14   ar
    17    14    15   ar
    18    15    16   ar
    19    16    17   ar
    20    17    18    1
    21     4     5   ar
    22     5     6   ar
    23     6     7    1
    24    25    26   ar
    25    26    27   ar
    26    27    22   ar
    27     6     1   ar
    28    17    12   ar
    29     8    11    1
    30    18    19    1
    31    18    20    1
@<TRIPOS>MOLECULE
*****
 29 31 0 0 0
SMALL
GASTEIGER

@<TRIPOS>ATOM
      1 C          63.7406   89.0315   15.0447 C.ar    1  UNL1        0.1592
      2 C          63.8421   88.6849   13.5888 C.ar    1  UNL1        0.0398
      3 C          64.1336   89.7571   12.5811 C.ar    1  UNL1        0.0179
      4 C          64.3235   91.1759   13.0294 C.ar    1  UNL1        0.0516
      5 C          64.2220   91.5225   14.4852 C.ar    1  UNL1        0.0292
      6 C          63.9305   90.4503   15.4929 C.ar    1  UNL1        0.0934
      7 CL         63.8290   90.7969   16.9487 Cl      1  UNL1       -0.0790
      8 N          64.6150   92.2481   12.0216 N.am    1  UNL1       -0.2791
      9 C          66.0216   92.7310   11.8259 C.2     1  UNL1        0.2685
     10 O          67.1367   92.1418   12.6379 O.2     1  UNL1       -0.2681
     11 H          63.8832   92.6349   11.4887 H       1  UNL1        0.1552
     12 C          66.3130   93.8032   10.8182 C.ar    1  UNL1        0.1475
     13 N          65.5966   95.1189   10.8945 N.ar    1  UNL1       -0.2380
     14 C          65.8880   96.1911    9.8868 C.ar    1  UNL1        0.0991
     15 C          66.8959   95.9477    8.8029 C.ar    1  UNL1        0.0219
     16 C          67.6123   94.6320    8.7266 C.ar    1  UNL1        0.0174
     17 C          67.3209   93.5598    9.7343 C.ar    1  UNL1        0.0640
     18 N          68.0373   92.2442    9.6580 N.pl3   1  UNL1       -0.3557
     19 H          68.6988   92.0844    8.9465 H       1  UNL1        0.1424
     20 H          67.8460   91.5404   10.3194 H       1  UNL1        0.1424
     21 O          63.4491   87.9592   16.0523 O.3     1  UNL1       -0.4214
     22 C          63.5853   83.6295   14.8339 C.ar    1  UNL1        0.0163
     23 C          64.6856   84.5605   14.4186 C.ar    1  UNL1        0.1009
     24 N          64.6402   86.0037   14.8247 N.ar    1  UNL1       -0.1927
     25 C          63.4945   86.5160   15.6462 C.ar    1  UNL1        0.3246
     26 N          62.3942   85.5850   16.0616 N.ar    1  UNL1       -0.1927
     27 C          62.4396   84.1417   15.6554 C.ar    1  UNL1        0.1009
     28 C          62.3724   81.4846   14.0103 C.3     1  UNL1        0.0051
     29 C          63.6307   82.1862   14.4278 C.3     1  UNL1        0.0295
@<TRIPOS>BOND
     1    28    29    1
     2    29    22    1
     3    22    23   ar
     4    23    24   ar
     5    24    25   ar
     6    25    21    1
     7    21     1    1
     8     1     2   ar
     9     2     3   ar
    10     3     4   ar
    11     4     8    1
    12     8     9   am
    13     9    10    2
    14     9    12    1
    15    12    13   ar
    16    13    14   ar
    17    14    15   ar
    18    15    16   ar
    19    16    17   ar
    20    17    18    1
    21     4     5   ar
    22     5     6   ar
    23     6     7    1
    24    25    26   ar
    25    26    27   ar
    26    27    22   ar
    27     6     1   ar
    28    17    12   ar
    29     8    11    1
    30    18    19    1
    31    18    20    1
@<TRIPOS>MOLECULE
*****
 29 31 0 0 0
SMALL
GASTEIGER

@<TRIPOS>ATOM
      1 C          64.0673   88.9787   14.1417 C.ar    1  UNL1        0.1592
      2 C          64.9718   90.0130   14.7435 C.ar    1  UNL1        0.0398
      3 C          65.2772   91.2728   13.9888 C.ar    1  UNL1        0.0179
      4 C          64.6781   91.4983   12.6322 C.ar    1  UNL1        0.0516
      5 C          63.7736   90.4641   12.0304 C.ar    1  UNL1        0.0292
      6 C          63.4682   89.2042   12.7852 C.ar    1  UNL1        0.0934
      7 CL         62.5637   88.1700   12.1834 Cl      1  UNL1       -0.0790
      8 N          64.9836   92.7581   11.8774 N.am    1  UNL1       -0.2791
      9 C          66.3779   93.0219   11.3914 C.2     1  UNL1        0.2685
     10 O          67.4668   92.0259   11.6602 O.2     1  UNL1       -0.2681
     11 H          64.2689   93.4119   11.7011 H       1  UNL1        0.1552
     12 C          66.6833   94.2817   10.6367 C.ar    1  UNL1        0.1475
     13 N          66.1328   95.5934   11.1128 N.ar    1  UNL1       -0.2380
     14 C          66.4382   96.8532   10.3581 C.ar    1  UNL1        0.0991
     15 C          67.2940   96.8014    9.1273 C.ar    1  UNL1        0.0219
     16 C          67.8444   95.4898    8.6512 C.ar    1  UNL1        0.0174
     17 C          67.5391   94.2299    9.4059 C.ar    1  UNL1        0.0640
     18 N          68.0895   92.9183    8.9298 N.pl3   1  UNL1       -0.3557
     19 H          68.6511   92.8843    8.1220 H       1  UNL1        0.1424
     20 H          67.8890   92.0915    9.4251 H       1  UNL1        0.1424
     21 O          63.7619   87.7190   14.8965 O.3     1  UNL1       -0.4214
     22 C          64.3258   83.7172   12.9171 C.ar    1  UNL1        0.0163
     23 C          65.2351   84.1363   14.0339 C.ar    1  UNL1        0.1009
     24 N          65.0472   85.4702   14.6937 N.ar    1  UNL1       -0.1927
     25 C          63.9499   86.3850   14.2367 C.ar    1  UNL1        0.3246
     26 N          63.0405   85.9660   13.1198 N.ar    1  UNL1       -0.1927
     27 C          63.2285   84.6321   12.4600 C.ar    1  UNL1        0.1009
     28 C          63.4375   81.3426   12.3494 C.3     1  UNL1        0.0051
     29 C          64.5138   82.3833   12.2572 C.3     1  UNL1        0.0295
@<TRIPOS>BOND
     1    28    29    1
     2    29    22    1
     3    22    23   ar
     4    23    24   ar
     5    24    25   ar
     6    25    21    1
     7    21     1    1
     8     1     2   ar
     9     2     3   ar
    10     3     4   ar
    11     4     8    1
    12     8     9   am
    13     9    10    2
    14     9    12    1
    15    12    13   ar
    16    13    14   ar
    17    14    15   ar
    18    15    16   ar
    19    16    17   ar
    20    17    18    1
    21     4     5   ar
    22     5     6   ar
    23     6     7    1
    24    25    26   ar
    25    26    27   ar
    26    27    22   ar
    27     6     1   ar
    28    17    12   ar
    29     8    11    1
    30    18    19    1
    31    18    20    1
@<TRIPOS>MOLECULE
*****
 29 31 0 0 0
SMALL
GASTEIGER

@<TRIPOS>ATOM
      1 C          61.4675   90.0877   10.6115 C.ar    1  UNL1        0.1592
      2 C          62.5292   90.7305    9.7689 C.ar    1  UNL1        0.0398
      3 C          63.7210   91.3665   10.4206 C.ar    1  UNL1        0.0179
      4 C          63.8514   91.3599   11.9149 C.ar    1  UNL1        0.0516
      5 C          62.7898   90.7172   12.7575 C.ar    1  UNL1        0.0292
      6 C          61.5979   90.0811   12.1058 C.ar    1  UNL1        0.0934
      7 CL         60.5363   89.4383   12.9484 Cl      1  UNL1       -0.0790
      8 N          65.0433   91.9961   12.5667 N.am    1  UNL1       -0.2791
      9 C          65.6432   91.3809   13.7961 C.2     1  UNL1        0.2685
     10 O          65.0512   90.1297   14.3740 O.2     1  UNL1       -0.2681
     11 H          65.4318   92.8173   12.1874 H       1  UNL1        0.1552
     12 C          66.8351   92.0171   14.4478 C.ar    1  UNL1        0.1475
     13 N          68.1623   92.0148   13.7488 N.ar    1  UNL1       -0.2380
     14 C          69.3542   92.6510   14.4005 C.ar    1  UNL1        0.0991
     15 C          69.2189   93.2894   15.7511 C.ar    1  UNL1        0.0219
     16 C          67.8918   93.2917   16.4501 C.ar    1  UNL1        0.0174
     17 C          66.6998   92.6555   15.7984 C.ar    1  UNL1        0.0640
     18 N          65.3726   92.6578   16.4974 N.pl3   1  UNL1       -0.3557
     19 H          65.2838   93.0768   17.3838 H       1  UNL1        0.1424
     20 H          64.5903   92.2402   16.0697 H       1  UNL1        0.1424
     21 O          60.2757   89.4516    9.9597 O.3     1  UNL1       -0.4214
     22 C          60.7844   85.7270    7.4861 C.ar    1  UNL1        0.0163
     23 C          61.8280   86.1058    8.4947 C.ar    1  UNL1        0.1009
     24 N          61.6584   87.3474    9.3193 N.ar    1  UNL1       -0.1927
     25 C          60.4453   88.2101    9.1352 C.ar    1  UNL1        0.3246
     26 N          59.4017   87.8313    8.1266 N.ar    1  UNL1       -0.1927
     27 C          59.5712   86.5897    7.3020 C.ar    1  UNL1        0.1009
     28 C          62.1102   84.3670    5.7134 C.3     1  UNL1        0.0051
     29 C          60.9540   84.4855    6.6616 C.3     1  UNL1        0.0295
@<TRIPOS>BOND
     1    28    29    1
     2    29    22    1
     3    22    23   ar
     4    23    24   ar
     5    24    25   ar
     6    25    21    1
     7    21     1    1
     8     1     2   ar
     9     2     3   ar
    10     3     4   ar
    11     4     8    1
    12     8     9   am
    13     9    10    2
    14     9    12    1
    15    12    13   ar
    16    13    14   ar
    17    14    15   ar
    18    15    16   ar
    19    16    17   ar
    20    17    18    1
    21     4     5   ar
    22     5     6   ar
    23     6     7    1
    24    25    26   ar
    25    26    27   ar
    26    27    22   ar
    27     6     1   ar
    28    17    12   ar
    29     8    11    1
    30    18    19    1
    31    18    20    1
@<TRIPOS>MOLECULE
*****
 29 31 0 0 0
SMALL
GASTEIGER

@<TRIPOS>ATOM
      1 C          63.8641   89.9762   14.7588 C.ar    1  UNL1        0.1592
      2 C          65.1664   90.7165   14.8371 C.ar    1  UNL1        0.0398
      3 C          65.5682   91.6463   13.7308 C.ar    1  UNL1        0.0179
      4 C          64.6678   91.8360   12.5462 C.ar    1  UNL1        0.0516
      5 C          63.3655   91.0958   12.4679 C.ar    1  UNL1        0.0292
      6 C          62.9636   90.1659   13.5742 C.ar    1  UNL1        0.0934
      7 CL         61.6613   89.4257   13.4959 Cl      1  UNL1       -0.0790
      8 N          65.0697   92.7659   11.4399 N.am    1  UNL1       -0.2791
      9 C          66.3619   93.5223   11.5283 C.2     1  UNL1        0.2685
     10 O          67.2524   93.3489   12.7229 O.2     1  UNL1       -0.2681
     11 H          64.4853   92.8797   10.6559 H       1  UNL1        0.1552
     12 C          66.7638   94.4522   10.4220 C.ar    1  UNL1        0.1475
     13 N          67.4131   93.9084    9.1839 N.ar    1  UNL1       -0.2380
     14 C          67.8149   94.8383    8.0776 C.ar    1  UNL1        0.0991
     15 C          67.5675   96.3118    8.2094 C.ar    1  UNL1        0.0219
     16 C          66.9182   96.8556    9.4474 C.ar    1  UNL1        0.0174
     17 C          66.5163   95.9257   10.5538 C.ar    1  UNL1        0.0640
     18 N          65.8670   96.4694   11.7918 N.pl3   1  UNL1       -0.3557
     19 H          65.7046   97.4366   11.8782 H       1  UNL1        0.1424
     20 H          65.6033   95.8592   12.5179 H       1  UNL1        0.1424
     21 O          63.4622   89.0464   15.8651 O.3     1  UNL1       -0.4214
     22 C          63.5640   84.5953   15.2116 C.ar    1  UNL1        0.0163
     23 C          64.2276   85.5131   14.2281 C.ar    1  UNL1        0.1009
     24 N          64.1936   86.9968   14.4459 N.ar    1  UNL1       -0.1927
     25 C          63.4962   87.5627   15.6473 C.ar    1  UNL1        0.3246
     26 N          62.8327   86.6449   16.6308 N.ar    1  UNL1       -0.1927
     27 C          62.8666   85.1612   16.4129 C.ar    1  UNL1        0.1009
     28 C          63.0987   82.5313   13.7038 C.3     1  UNL1        0.0051
     29 C          63.5980   83.1115   14.9938 C.3     1  UNL1        0.0295
@<TRIPOS>BOND
     1    28    29    1
     2    29    22    1
     3    22    23   ar
     4    23    24   ar
     5    24    25   ar
     6    25    21    1
     7    21     1    1
     8     1     2   ar
     9     2     3   ar
    10     3     4   ar
    11     4     8    1
    12     8     9   am
    13     9    10    2
    14     9    12    1
    15    12    13   ar
    16    13    14   ar
    17    14    15   ar
    18    15    16   ar
    19    16    17   ar
    20    17    18    1
    21     4     5   ar
    22     5     6   ar
    23     6     7    1
    24    25    26   ar
    25    26    27   ar
    26    27    22   ar
    27     6     1   ar
    28    17    12   ar
    29     8    11    1
    30    18    19    1
    31    18    20    1
