@<TRIPOS>MOLECULE
*****
 46 50 0 0 0
SMALL
GASTEIGER

@<TRIPOS>ATOM
      1 C          60.3693   87.0132    8.4092 C.2     1  UNL1        0.2492
      2 O          59.2373   86.4622    7.5937 O.2     1  UNL1       -0.2699
      3 N          60.5053   88.4949    8.5986 N.am    1  UNL1       -0.2721
      4 C          63.5607   83.3354   12.5378 C.ar    1  UNL1        0.2924
      5 N          64.1799   83.3317   11.1716 N.ar    1  UNL1       -0.1946
      6 C          63.3570   84.2210   10.2873 C.ar    1  UNL1        0.1202
      7 C          63.4889   84.5984    8.8415 C.ar    1  UNL1        0.0225
      8 C          62.4930   85.5291    8.2155 C.ar    1  UNL1        0.0063
      9 C          61.3652   86.0824    9.0353 C.ar    1  UNL1        0.0567
     10 C          61.2333   85.7051   10.4810 C.ar    1  UNL1        0.0437
     11 C          62.2292   84.7743   11.1070 C.ar    1  UNL1        0.1662
     12 O          62.3552   84.2270   12.4979 O.2     1  UNL1       -0.4237
     13 N          64.0596   82.5802   13.7340 N.pl3   1  UNL1       -0.2619
     14 C          64.9296   83.2664   14.7449 C.3     1  UNL1        0.1166
     15 C          62.6207   80.5233   13.0639 C.3     1  UNL1        0.0233
     16 C          63.6884   81.1387   13.9192 C.3     1  UNL1        0.0952
     17 C          59.5094   89.4257    7.9725 C.3     1  UNL1        0.1111
     18 C          59.1637   89.2871    6.5196 C.3     1  UNL1        0.0939
     19 N          59.2713   90.4725    5.6067 N.3     1  UNL1       -0.2712
     20 C          58.1365   91.3426    5.1540 C.3     1  UNL1        0.0722
     21 C          58.6965   92.4037    4.2538 C.3     1  UNL1        0.0188
     22 C          60.1775   92.1893    4.1501 C.3     1  UNL1        0.0188
     23 C          60.5327   90.9957    4.9862 C.3     1  UNL1        0.0722
     24 C          61.6373   89.0460    9.4141 C.3     1  UNL1        0.1246
     25 C          61.4084   90.2221   10.3167 C.3     1  UNL1        0.1484
     26 O          60.0422   90.8323   10.4214 O.3     1  UNL1       -0.3810
     27 H          59.4279   90.3508    9.8455 H       1  UNL1        0.2105
     28 C          62.5458   90.7878   11.1144 C.3     1  UNL1        0.1075
     29 N          62.4342   90.8969   12.6063 N.am    1  UNL1       -0.2695
     30 C          62.8513   89.7479   13.4756 C.2     1  UNL1        0.4020
     31 O          63.3800   88.4897   12.8531 O.2     1  UNL1       -0.2264
     32 H          62.0873   91.7227   13.0149 H       1  UNL1        0.1528
     33 O          62.7398   89.8570   14.9675 O.3     1  UNL1       -0.4291
     34 C          63.6983   89.1112   15.8478 C.3     1  UNL1        0.2447
     35 C          63.2937   87.8014   16.4566 C.ar    1  UNL1        0.0714
     36 C          62.5930   87.6188   17.7704 C.ar    1  UNL1        0.1053
     37 N          62.3850   86.1488   17.9844 N.ar    1  UNL1       -0.2350
     38 C          62.9570   85.4228   16.8029 C.ar    1  UNL1        0.1343
     39 S          63.5186   86.4443   15.8587 S.2     1  UNL1       -0.0652
     40 C          63.7946   91.2444   10.4203 C.3     1  UNL1        0.0485
     41 C          64.7084   92.2273   11.0902 C.ar    1  UNL1       -0.0204
     42 C          65.1870   93.4365   10.3427 C.ar    1  UNL1       -0.0042
     43 C          66.1008   94.4194   11.0127 C.ar    1  UNL1       -0.0003
     44 C          66.5361   94.1931   12.4302 C.ar    1  UNL1       -0.0000
     45 C          66.0575   92.9839   13.1777 C.ar    1  UNL1       -0.0003
     46 C          65.1437   92.0010   12.5077 C.ar    1  UNL1       -0.0042
@<TRIPOS>BOND
     1    15    16    1
     2    16    13    1
     3    13    14    1
     4    13     4    1
     5     4     5   ar
     6     5     6   ar
     7     6     7   ar
     8     7     8   ar
     9     8     9   ar
    10     9     1    1
    11     1     2    2
    12     1     3   am
    13     3    17    1
    14    17    18    1
    15    18    19    1
    16    19    20    1
    17    20    21    1
    18    21    22    1
    19    22    23    1
    20     3    24    1
    21    24    25    1
    22    25    26    1
    23    25    28    1
    24    28    40    1
    25    40    41    1
    26    41    42   ar
    27    42    43   ar
    28    43    44   ar
    29    44    45   ar
    30    45    46   ar
    31    28    29    1
    32    29    30   am
    33    30    31    2
    34    30    33    1
    35    33    34    1
    36    34    35    1
    37    35    36   ar
    38    36    37   ar
    39    37    38   ar
    40    38    39   ar
    41     9    10   ar
    42    10    11   ar
    43    11    12   ar
    44    12     4   ar
    45    11     6   ar
    46    23    19    1
    47    46    41   ar
    48    39    35   ar
    49    26    27    1
    50    29    32    1
@<TRIPOS>MOLECULE
*****
 46 50 0 0 0
SMALL
GASTEIGER

@<TRIPOS>ATOM
      1 C          63.8882   89.0291   13.3938 C.2     1  UNL1        0.2492
      2 O          64.7718   89.9300   14.2047 O.2     1  UNL1       -0.2699
      3 N          63.0532   89.5973   12.2849 N.am    1  UNL1       -0.2721
      4 C          62.9960   82.7215   12.9753 C.ar    1  UNL1        0.2924
      5 N          63.5747   83.1307   14.2973 N.ar    1  UNL1       -0.1946
      6 C          63.7422   84.6213   14.2885 C.ar    1  UNL1        0.1202
      7 C          64.2660   85.5786   15.3177 C.ar    1  UNL1        0.0225
      8 C          64.3147   87.0478   15.0195 C.ar    1  UNL1        0.0063
      9 C          63.8395   87.5598   13.6920 C.ar    1  UNL1        0.0567
     10 C          63.3157   86.6026   12.6628 C.ar    1  UNL1        0.0437
     11 C          63.2670   85.1333   12.9611 C.ar    1  UNL1        0.1662
     12 O          62.8059   83.9592   12.1495 O.2     1  UNL1       -0.4237
     13 N          62.6655   81.3205   12.5533 N.pl3   1  UNL1       -0.2619
     14 C          62.9970   80.8573   11.1657 C.3     1  UNL1        0.1166
     15 C          60.6948   80.7564   14.1495 C.3     1  UNL1        0.0233
     16 C          62.0035   80.3828   13.5189 C.3     1  UNL1        0.0952
     17 C          63.1019   91.0667   11.9867 C.3     1  UNL1        0.1111
     18 C          64.1359   91.6067   11.0437 C.3     1  UNL1        0.0939
     19 N          65.0512   92.7096   11.4861 N.3     1  UNL1       -0.2712
     20 C          65.4939   93.8756   10.6528 C.3     1  UNL1        0.0722
     21 C          66.4009   94.7268   11.4912 C.3     1  UNL1        0.0188
     22 C          66.5187   94.0868   12.8428 C.3     1  UNL1        0.0188
     23 C          65.6845   92.8401   12.8396 C.3     1  UNL1        0.0722
     24 C          62.1696   88.6964   11.4740 C.3     1  UNL1        0.1246
     25 C          60.9331   89.2443   10.8253 C.3     1  UNL1        0.1484
     26 O          60.1480   90.3281   11.5028 O.3     1  UNL1       -0.3810
     27 H          60.5729   90.5575   12.3440 H       1  UNL1        0.2105
     28 C          60.4816   88.7085    9.4990 C.3     1  UNL1        0.1075
     29 N          60.3982   89.6202    8.3107 N.am    1  UNL1       -0.2695
     30 C          59.3516   89.3904    7.2611 C.2     1  UNL1        0.4020
     31 O          58.3886   88.2488    7.3995 O.2     1  UNL1       -0.2264
     32 H          61.0303   90.3695    8.2199 H       1  UNL1        0.1528
     33 O          59.2682   90.3022    6.0728 O.3     1  UNL1       -0.4291
     34 C          60.5127   90.6697    5.3206 C.3     1  UNL1        0.2447
     35 C          60.4465   91.6687    4.2037 C.ar    1  UNL1        0.0714
     36 C          59.2360   92.4542    3.7939 C.ar    1  UNL1        0.1053
     37 N          59.6204   93.3286    2.6374 N.ar    1  UNL1       -0.2350
     38 C          61.0685   93.0836    2.3323 C.ar    1  UNL1        0.1343
     39 S          61.5790   92.0577    3.3004 S.2     1  UNL1       -0.0652
     40 C          60.1137   87.2609    9.3608 C.3     1  UNL1        0.0485
     41 C          61.0044   86.3307    8.5917 C.ar    1  UNL1       -0.0204
     42 C          62.3799   86.0170    9.1013 C.ar    1  UNL1       -0.0042
     43 C          63.2705   85.0868    8.3322 C.ar    1  UNL1       -0.0003
     44 C          62.7858   84.4704    7.0536 C.ar    1  UNL1       -0.0000
     45 C          61.4104   84.7842    6.5440 C.ar    1  UNL1       -0.0003
     46 C          60.5197   85.7143    7.3131 C.ar    1  UNL1       -0.0042
@<TRIPOS>BOND
     1    15    16    1
     2    16    13    1
     3    13    14    1
     4    13     4    1
     5     4     5   ar
     6     5     6   ar
     7     6     7   ar
     8     7     8   ar
     9     8     9   ar
    10     9     1    1
    11     1     2    2
    12     1     3   am
    13     3    17    1
    14    17    18    1
    15    18    19    1
    16    19    20    1
    17    20    21    1
    18    21    22    1
    19    22    23    1
    20     3    24    1
    21    24    25    1
    22    25    26    1
    23    25    28    1
    24    28    40    1
    25    40    41    1
    26    41    42   ar
    27    42    43   ar
    28    43    44   ar
    29    44    45   ar
    30    45    46   ar
    31    28    29    1
    32    29    30   am
    33    30    31    2
    34    30    33    1
    35    33    34    1
    36    34    35    1
    37    35    36   ar
    38    36    37   ar
    39    37    38   ar
    40    38    39   ar
    41     9    10   ar
    42    10    11   ar
    43    11    12   ar
    44    12     4   ar
    45    11     6   ar
    46    23    19    1
    47    46    41   ar
    48    39    35   ar
    49    26    27    1
    50    29    32    1
@<TRIPOS>MOLECULE
*****
 46 50 0 0 0
SMALL
GASTEIGER

@<TRIPOS>ATOM
      1 C          63.5393   87.8532   16.2649 C.2     1  UNL1        0.2492
      2 O          63.4296   87.9739   17.7560 O.2     1  UNL1       -0.2699
      3 N          63.5128   89.0845   15.4088 N.am    1  UNL1       -0.2721
      4 C          62.3662   81.9834   14.0453 C.ar    1  UNL1        0.2924
      5 N          63.7827   82.4137   13.8036 N.ar    1  UNL1       -0.1946
      6 C          63.9484   83.7968   14.3602 C.ar    1  UNL1        0.1202
      7 C          65.1261   84.7244   14.4094 C.ar    1  UNL1        0.0225
      8 C          64.9897   86.0765   15.0443 C.ar    1  UNL1        0.0063
      9 C          63.6757   86.5010   15.6300 C.ar    1  UNL1        0.0567
     10 C          62.4980   85.5733   15.5809 C.ar    1  UNL1        0.0437
     11 C          62.6344   84.2212   14.9460 C.ar    1  UNL1        0.1662
     12 O          61.6565   83.1005   14.7513 O.2     1  UNL1       -0.4237
     13 N          61.7650   80.6672   13.6504 N.pl3   1  UNL1       -0.2619
     14 C          60.4337   80.2543   14.2045 C.3     1  UNL1        0.1166
     15 C          62.9124   80.2721   11.3532 C.3     1  UNL1        0.0233
     16 C          62.4951   79.7638   12.7013 C.3     1  UNL1        0.0952
     17 C          63.3764   90.4367   16.0437 C.3     1  UNL1        0.1111
     18 C          63.9505   91.6451   15.3654 C.3     1  UNL1        0.0939
     19 N          65.4342   91.8654   15.3550 N.3     1  UNL1       -0.2712
     20 C          66.3856   91.4103   14.2884 C.3     1  UNL1        0.0722
     21 C          67.7664   91.8431   14.6836 C.3     1  UNL1        0.0188
     22 C          67.6683   92.5656   15.9945 C.3     1  UNL1        0.0188
     23 C          66.2269   92.5793   16.4094 C.3     1  UNL1        0.0722
     24 C          63.6225   88.9637   13.9177 C.3     1  UNL1        0.1246
     25 C          62.4606   89.3409   13.0471 C.3     1  UNL1        0.1484
     26 O          61.2335   89.9511   13.6569 O.3     1  UNL1       -0.3810
     27 H          61.3551   90.0319   14.6159 H       1  UNL1        0.2105
     28 C          62.5259   89.1078   11.5668 C.3     1  UNL1        0.1075
     29 N          63.4858   89.8954   10.7251 N.am    1  UNL1       -0.2695
     30 C          63.8299   91.3061   11.1010 C.2     1  UNL1        0.4020
     31 O          63.2141   91.9294   12.3185 O.2     1  UNL1       -0.2264
     32 H          63.8901   89.4863    9.9261 H       1  UNL1        0.1528
     33 O          64.7899   92.0937   10.2594 O.3     1  UNL1       -0.4291
     34 C          65.9966   92.7242   10.8889 C.3     1  UNL1        0.2447
     35 C          66.4859   94.0564   10.4036 C.ar    1  UNL1        0.0714
     36 C          67.3692   94.2914    9.2142 C.ar    1  UNL1        0.1053
     37 N          67.6071   95.7679    9.0980 N.ar    1  UNL1       -0.2350
     38 C          66.8709   96.4454   10.2156 C.ar    1  UNL1        0.1343
     39 S          66.1780   95.3877   11.0225 S.2     1  UNL1       -0.0652
     40 C          61.6312   88.0873   10.9281 C.3     1  UNL1        0.0485
     41 C          62.1971   86.7762   10.4690 C.ar    1  UNL1       -0.0204
     42 C          62.4826   86.5509    9.0138 C.ar    1  UNL1       -0.0042
     43 C          63.0485   85.2398    8.5547 C.ar    1  UNL1       -0.0003
     44 C          63.3289   84.1539    9.5508 C.ar    1  UNL1       -0.0000
     45 C          63.0434   84.3792   11.0060 C.ar    1  UNL1       -0.0003
     46 C          62.4775   85.6903   11.4651 C.ar    1  UNL1       -0.0042
@<TRIPOS>BOND
     1    15    16    1
     2    16    13    1
     3    13    14    1
     4    13     4    1
     5     4     5   ar
     6     5     6   ar
     7     6     7   ar
     8     7     8   ar
     9     8     9   ar
    10     9     1    1
    11     1     2    2
    12     1     3   am
    13     3    17    1
    14    17    18    1
    15    18    19    1
    16    19    20    1
    17    20    21    1
    18    21    22    1
    19    22    23    1
    20     3    24    1
    21    24    25    1
    22    25    26    1
    23    25    28    1
    24    28    40    1
    25    40    41    1
    26    41    42   ar
    27    42    43   ar
    28    43    44   ar
    29    44    45   ar
    30    45    46   ar
    31    28    29    1
    32    29    30   am
    33    30    31    2
    34    30    33    1
    35    33    34    1
    36    34    35    1
    37    35    36   ar
    38    36    37   ar
    39    37    38   ar
    40    38    39   ar
    41     9    10   ar
    42    10    11   ar
    43    11    12   ar
    44    12     4   ar
    45    11     6   ar
    46    23    19    1
    47    46    41   ar
    48    39    35   ar
    49    26    27    1
    50    29    32    1
@<TRIPOS>MOLECULE
*****
 46 50 0 0 0
SMALL
GASTEIGER

@<TRIPOS>ATOM
      1 C          60.6330   87.1372    8.7673 C.2     1  UNL1        0.2492
      2 O          59.4728   86.6809    7.9332 O.2     1  UNL1       -0.2699
      3 N          60.8822   88.6026    8.9680 N.am    1  UNL1       -0.2721
      4 C          63.4738   83.2045   12.9172 C.ar    1  UNL1        0.2924
      5 N          64.1055   83.1546   11.5576 N.ar    1  UNL1       -0.1946
      6 C          63.3663   84.1093   10.6676 C.ar    1  UNL1        0.1202
      7 C          63.5439   84.4786    9.2247 C.ar    1  UNL1        0.0225
      8 C          62.6328   85.4879    8.5913 C.ar    1  UNL1        0.0063
      9 C          61.5442   86.1279    9.4008 C.ar    1  UNL1        0.0567
     10 C          61.3666   85.7586   10.8437 C.ar    1  UNL1        0.0437
     11 C          62.2777   84.7493   11.4771 C.ar    1  UNL1        0.1662
     12 O          62.3441   84.1901   12.8674 O.2     1  UNL1       -0.4237
     13 N          63.8973   82.4085   14.1160 N.pl3   1  UNL1       -0.2619
     14 C          64.4759   83.1045   15.3121 C.3     1  UNL1        0.1166
     15 C          62.4729   80.2936   13.6179 C.3     1  UNL1        0.0233
     16 C          63.7422   80.9166   14.1186 C.3     1  UNL1        0.0952
     17 C          59.9710   89.6119    8.3345 C.3     1  UNL1        0.1111
     18 C          59.3110   89.3073    7.0225 C.3     1  UNL1        0.0939
     19 N          59.1933   90.3756    5.9762 N.3     1  UNL1       -0.2712
     20 C          57.9188   91.0085    5.5017 C.3     1  UNL1        0.0722
     21 C          58.2673   92.0227    4.4530 C.3     1  UNL1        0.0188
     22 C          59.7573   92.0167    4.2793 C.3     1  UNL1        0.0188
     23 C          60.3295   90.9987    5.2207 C.3     1  UNL1        0.0722
     24 C          62.0424   89.0589    9.8021 C.3     1  UNL1        0.1246
     25 C          61.8655   89.2817   11.2750 C.3     1  UNL1        0.1484
     26 O          60.5369   89.0178   11.9192 O.3     1  UNL1       -0.3810
     27 H          59.9073   88.7111   11.2480 H       1  UNL1        0.2105
     28 C          63.0173   89.7684   12.1035 C.3     1  UNL1        0.1075
     29 N          63.3027   91.2377   12.2014 N.am    1  UNL1       -0.2695
     30 C          64.6329   91.7113   12.7076 C.2     1  UNL1        0.4020
     31 O          65.6778   90.7155   13.1158 O.2     1  UNL1       -0.2264
     32 H          62.6169   91.8913   11.9335 H       1  UNL1        0.1528
     33 O          64.9183   93.1807   12.8055 O.3     1  UNL1       -0.4291
     34 C          66.2864   93.7023   12.4800 C.3     1  UNL1        0.2447
     35 C          66.5729   94.2560   11.1157 C.ar    1  UNL1        0.0714
     36 C          67.1301   93.4901    9.9525 C.ar    1  UNL1        0.1053
     37 N          67.2541   94.4336    8.7929 N.ar    1  UNL1       -0.2350
     38 C          66.7736   95.7826    9.2395 C.ar    1  UNL1        0.1343
     39 S          66.3525   95.6728   10.6751 S.2     1  UNL1       -0.0652
     40 C          63.8837   88.7857   12.8340 C.3     1  UNL1        0.0485
     41 C          63.6371   88.5031   14.2864 C.ar    1  UNL1       -0.0204
     42 C          63.1530   89.5968   15.1916 C.ar    1  UNL1       -0.0042
     43 C          62.9064   89.3142   16.6439 C.ar    1  UNL1       -0.0003
     44 C          63.1438   87.9379   17.1910 C.ar    1  UNL1       -0.0000
     45 C          63.6279   86.8442   16.2858 C.ar    1  UNL1       -0.0003
     46 C          63.8745   87.1268   14.8335 C.ar    1  UNL1       -0.0042
@<TRIPOS>BOND
     1    15    16    1
     2    16    13    1
     3    13    14    1
     4    13     4    1
     5     4     5   ar
     6     5     6   ar
     7     6     7   ar
     8     7     8   ar
     9     8     9   ar
    10     9     1    1
    11     1     2    2
    12     1     3   am
    13     3    17    1
    14    17    18    1
    15    18    19    1
    16    19    20    1
    17    20    21    1
    18    21    22    1
    19    22    23    1
    20     3    24    1
    21    24    25    1
    22    25    26    1
    23    25    28    1
    24    28    40    1
    25    40    41    1
    26    41    42   ar
    27    42    43   ar
    28    43    44   ar
    29    44    45   ar
    30    45    46   ar
    31    28    29    1
    32    29    30   am
    33    30    31    2
    34    30    33    1
    35    33    34    1
    36    34    35    1
    37    35    36   ar
    38    36    37   ar
    39    37    38   ar
    40    38    39   ar
    41     9    10   ar
    42    10    11   ar
    43    11    12   ar
    44    12     4   ar
    45    11     6   ar
    46    23    19    1
    47    46    41   ar
    48    39    35   ar
    49    26    27    1
    50    29    32    1
@<TRIPOS>MOLECULE
*****
 46 50 0 0 0
SMALL
GASTEIGER

@<TRIPOS>ATOM
      1 C          59.0883   88.6902    7.3785 C.2     1  UNL1        0.2492
      2 O          58.3393   87.4209    7.0994 O.2     1  UNL1       -0.2699
      3 N          59.8010   88.8683    8.6863 N.am    1  UNL1       -0.2721
      4 C          60.9996   92.8545    2.9330 C.ar    1  UNL1        0.2924
      5 N          59.5376   92.9806    3.2439 N.ar    1  UNL1       -0.1946
      6 C          59.1972   91.9635    4.2926 C.ar    1  UNL1        0.1202
      7 C          57.9093   91.6271    4.9839 C.ar    1  UNL1        0.0225
      8 C          57.8730   90.5360    6.0125 C.ar    1  UNL1        0.0063
      9 C          59.1247   89.7813    6.3498 C.ar    1  UNL1        0.0567
     10 C          60.4126   90.1177    5.6585 C.ar    1  UNL1        0.0437
     11 C          60.4489   91.2088    4.6299 C.ar    1  UNL1        0.1662
     12 O          61.5628   91.7595    3.7896 O.2     1  UNL1       -0.4237
     13 N          61.7642   93.6787    1.9400 N.pl3   1  UNL1       -0.2619
     14 C          61.1886   94.9682    1.4342 C.3     1  UNL1        0.1166
     15 C          64.2876   94.1328    1.5205 C.3     1  UNL1        0.0233
     16 C          63.1043   93.2134    1.4527 C.3     1  UNL1        0.0952
     17 C          59.7647   87.7771    9.7150 C.3     1  UNL1        0.1111
     18 C          60.9502   86.8759    9.8945 C.3     1  UNL1        0.0939
     19 N          61.4517   86.0578    8.7417 N.3     1  UNL1       -0.2712
     20 C          62.8664   85.6058    8.5307 C.3     1  UNL1        0.0722
     21 C          62.9156   84.8166    7.2560 C.3     1  UNL1        0.0188
     22 C          61.5314   84.7809    6.6792 C.3     1  UNL1        0.0188
     23 C          60.6267   85.5480    7.5974 C.3     1  UNL1        0.0722
     24 C          60.5501   90.1375    8.9654 C.3     1  UNL1        0.1246
     25 C          61.0854   90.4054   10.3409 C.3     1  UNL1        0.1484
     26 O          60.1433   90.7271   11.4629 O.3     1  UNL1       -0.3810
     27 H          59.2317   90.7210   11.1314 H       1  UNL1        0.2105
     28 C          62.5629   90.3517   10.5942 C.3     1  UNL1        0.1075
     29 N          63.1848   89.1018   11.1431 N.am    1  UNL1       -0.2695
     30 C          62.9842   88.7345   12.5835 C.2     1  UNL1        0.4020
     31 O          62.1619   89.6169   13.4751 O.2     1  UNL1       -0.2264
     32 H          63.7245   88.5226   10.5579 H       1  UNL1        0.1528
     33 O          63.6061   87.4846   13.1323 O.3     1  UNL1       -0.4291
     34 C          63.1862   86.1443   12.6057 C.3     1  UNL1        0.2447
     35 C          63.4528   84.9059   13.4089 C.ar    1  UNL1        0.0714
     36 C          63.5580   84.8298   14.9033 C.ar    1  UNL1        0.1053
     37 N          63.8313   83.4030   15.2768 N.ar    1  UNL1       -0.2350
     38 C          63.8950   82.5971   14.0132 C.ar    1  UNL1        0.1343
     39 S          63.6611   83.5260   12.8588 S.2     1  UNL1       -0.0652
     40 C          63.4185   91.5477   10.2987 C.3     1  UNL1        0.0485
     41 C          64.5833   91.8742   11.1856 C.ar    1  UNL1       -0.0204
     42 C          64.4693   91.6935   12.6703 C.ar    1  UNL1       -0.0042
     43 C          65.6341   92.0200   13.5572 C.ar    1  UNL1       -0.0003
     44 C          66.9129   92.5271   12.9595 C.ar    1  UNL1       -0.0000
     45 C          67.0270   92.7078   11.4748 C.ar    1  UNL1       -0.0003
     46 C          65.8622   92.3813   10.5879 C.ar    1  UNL1       -0.0042
@<TRIPOS>BOND
     1    15    16    1
     2    16    13    1
     3    13    14    1
     4    13     4    1
     5     4     5   ar
     6     5     6   ar
     7     6     7   ar
     8     7     8   ar
     9     8     9   ar
    10     9     1    1
    11     1     2    2
    12     1     3   am
    13     3    17    1
    14    17    18    1
    15    18    19    1
    16    19    20    1
    17    20    21    1
    18    21    22    1
    19    22    23    1
    20     3    24    1
    21    24    25    1
    22    25    26    1
    23    25    28    1
    24    28    40    1
    25    40    41    1
    26    41    42   ar
    27    42    43   ar
    28    43    44   ar
    29    44    45   ar
    30    45    46   ar
    31    28    29    1
    32    29    30   am
    33    30    31    2
    34    30    33    1
    35    33    34    1
    36    34    35    1
    37    35    36   ar
    38    36    37   ar
    39    37    38   ar
    40    38    39   ar
    41     9    10   ar
    42    10    11   ar
    43    11    12   ar
    44    12     4   ar
    45    11     6   ar
    46    23    19    1
    47    46    41   ar
    48    39    35   ar
    49    26    27    1
    50    29    32    1
@<TRIPOS>MOLECULE
*****
 46 50 0 0 0
SMALL
GASTEIGER

@<TRIPOS>ATOM
      1 C          60.6606   87.1800    8.6121 C.2     1  UNL1        0.2492
      2 O          59.5460   86.7524    7.7039 O.2     1  UNL1       -0.2699
      3 N          60.8939   88.6376    8.8784 N.am    1  UNL1       -0.2721
      4 C          63.4054   83.2219   12.8022 C.ar    1  UNL1        0.2924
      5 N          64.0193   83.1248   11.4371 N.ar    1  UNL1       -0.1946
      6 C          63.3048   84.0896   10.5378 C.ar    1  UNL1        0.1202
      7 C          63.4789   84.4264    9.0865 C.ar    1  UNL1        0.0225
      8 C          62.5976   85.4565    8.4447 C.ar    1  UNL1        0.0063
      9 C          61.5420   86.1498    9.2541 C.ar    1  UNL1        0.0567
     10 C          61.3679   85.8131   10.7053 C.ar    1  UNL1        0.0437
     11 C          62.2493   84.7830   11.3472 C.ar    1  UNL1        0.1662
     12 O          62.3114   84.2467   12.7467 O.2     1  UNL1       -0.4237
     13 N          63.8137   82.4327   14.0107 N.pl3   1  UNL1       -0.2619
     14 C          64.3265   83.1398   15.2301 C.3     1  UNL1        0.1166
     15 C          62.4452   80.2762   13.5349 C.3     1  UNL1        0.0233
     16 C          63.7092   80.9364   13.9998 C.3     1  UNL1        0.0952
     17 C          60.0125   89.6677    8.2364 C.3     1  UNL1        0.1111
     18 C          59.3050   89.3538    6.9516 C.3     1  UNL1        0.0939
     19 N          59.1481   90.4151    5.9032 N.3     1  UNL1       -0.2712
     20 C          57.8507   90.9948    5.4228 C.3     1  UNL1        0.0722
     21 C          58.1617   92.0210    4.3739 C.3     1  UNL1        0.0188
     22 C          59.6514   92.0755    4.2061 C.3     1  UNL1        0.0188
     23 C          60.2609   91.0830    5.1513 C.3     1  UNL1        0.0722
     24 C          62.0085   89.0651    9.7866 C.3     1  UNL1        0.1246
     25 C          61.7858   90.1667   10.7801 C.3     1  UNL1        0.1484
     26 O          60.3963   90.4878   11.2450 O.3     1  UNL1       -0.3810
     27 H          59.7644   89.8944   10.8095 H       1  UNL1        0.2105
     28 C          62.9526   90.9473   11.3085 C.3     1  UNL1        0.1075
     29 N          63.1351   91.1141   12.7880 N.am    1  UNL1       -0.2695
     30 C          63.4377   89.9213   13.6456 C.2     1  UNL1        0.4020
     31 O          63.5579   88.5616   13.0237 O.2     1  UNL1       -0.2264
     32 H          63.0562   92.0065   13.1962 H       1  UNL1        0.1528
     33 O          63.6202   90.0881   15.1252 O.3     1  UNL1       -0.4291
     34 C          64.1368   91.3842   15.6757 C.3     1  UNL1        0.2447
     35 C          65.5992   91.7063   15.5882 C.ar    1  UNL1        0.0714
     36 C          66.6176   90.9672   14.7717 C.ar    1  UNL1        0.1053
     37 N          67.9478   91.6281   14.9808 N.ar    1  UNL1       -0.2350
     38 C          67.7516   92.7758   15.9265 C.ar    1  UNL1        0.1343
     39 S          66.3000   92.8241   16.3019 S.2     1  UNL1       -0.0652
     40 C          63.9369   91.5610   10.3575 C.3     1  UNL1        0.0485
     41 C          64.7897   92.7128   10.8005 C.ar    1  UNL1       -0.0204
     42 C          65.0813   93.8381    9.8527 C.ar    1  UNL1       -0.0042
     43 C          65.9341   94.9899   10.2956 C.ar    1  UNL1       -0.0003
     44 C          66.4953   95.0163   11.6864 C.ar    1  UNL1       -0.0000
     45 C          66.2036   93.8909   12.6343 C.ar    1  UNL1       -0.0003
     46 C          65.3508   92.7391   12.1913 C.ar    1  UNL1       -0.0042
@<TRIPOS>BOND
     1    15    16    1
     2    16    13    1
     3    13    14    1
     4    13     4    1
     5     4     5   ar
     6     5     6   ar
     7     6     7   ar
     8     7     8   ar
     9     8     9   ar
    10     9     1    1
    11     1     2    2
    12     1     3   am
    13     3    17    1
    14    17    18    1
    15    18    19    1
    16    19    20    1
    17    20    21    1
    18    21    22    1
    19    22    23    1
    20     3    24    1
    21    24    25    1
    22    25    26    1
    23    25    28    1
    24    28    40    1
    25    40    41    1
    26    41    42   ar
    27    42    43   ar
    28    43    44   ar
    29    44    45   ar
    30    45    46   ar
    31    28    29    1
    32    29    30   am
    33    30    31    2
    34    30    33    1
    35    33    34    1
    36    34    35    1
    37    35    36   ar
    38    36    37   ar
    39    37    38   ar
    40    38    39   ar
    41     9    10   ar
    42    10    11   ar
    43    11    12   ar
    44    12     4   ar
    45    11     6   ar
    46    23    19    1
    47    46    41   ar
    48    39    35   ar
    49    26    27    1
    50    29    32    1
@<TRIPOS>MOLECULE
*****
 46 50 0 0 0
SMALL
GASTEIGER

@<TRIPOS>ATOM
      1 C          64.3528   90.8894   13.9083 C.2     1  UNL1        0.2492
      2 O          64.9230   92.0142   14.7205 O.2     1  UNL1       -0.2699
      3 N          64.1140   91.0714   12.4387 N.am    1  UNL1       -0.2721
      4 C          63.5090   84.6750   15.1026 C.ar    1  UNL1        0.2924
      5 N          63.1223   85.5387   16.2664 N.ar    1  UNL1       -0.1946
      6 C          63.3584   86.9690   15.8810 C.ar    1  UNL1        0.1202
      7 C          63.1571   88.2555   16.6255 C.ar    1  UNL1        0.0225
      8 C          63.4886   89.5623   15.9679 C.ar    1  UNL1        0.0063
      9 C          64.0213   89.5825   14.5659 C.ar    1  UNL1        0.0567
     10 C          64.2225   88.2960   13.8214 C.ar    1  UNL1        0.0437
     11 C          63.8911   86.9893   14.4789 C.ar    1  UNL1        0.1662
     12 O          63.9842   85.5715   13.9979 O.2     1  UNL1       -0.4237
     13 N          63.4339   83.1777   15.0524 N.pl3   1  UNL1       -0.2619
     14 C          64.6665   82.3565   15.2895 C.3     1  UNL1        0.1166
     15 C          62.0111   81.5507   13.6108 C.3     1  UNL1        0.0233
     16 C          62.1261   82.5017   14.7651 C.3     1  UNL1        0.0952
     17 C          64.4454   92.3783   11.7812 C.3     1  UNL1        0.1111
     18 C          65.8026   92.9890   11.9682 C.3     1  UNL1        0.0939
     19 N          66.7046   93.1884   10.7865 N.3     1  UNL1       -0.2712
     20 C          66.7635   94.4103    9.9184 C.3     1  UNL1        0.0722
     21 C          67.8014   94.1779    8.8607 C.3     1  UNL1        0.0188
     22 C          68.3840   92.8123    9.0751 C.3     1  UNL1        0.0188
     23 C          67.7061   92.2008   10.2653 C.3     1  UNL1        0.0722
     24 C          63.5437   89.9466   11.6266 C.3     1  UNL1        0.1246
     25 C          62.0727   89.9018   11.3363 C.3     1  UNL1        0.1484
     26 O          61.1649   90.9554   11.8983 O.3     1  UNL1       -0.3810
     27 H          61.6852   91.5849   12.4215 H       1  UNL1        0.2105
     28 C          61.5095   88.8033   10.4841 C.3     1  UNL1        0.1075
     29 N          61.1847   89.0637    9.0430 N.am    1  UNL1       -0.2695
     30 C          59.9549   88.4616    8.4307 C.2     1  UNL1        0.4020
     31 O          59.0498   87.5990    9.2594 O.2     1  UNL1       -0.2264
     32 H          61.7788   89.6299    8.4990 H       1  UNL1        0.1528
     33 O          59.6301   88.7220    6.9896 O.3     1  UNL1       -0.4291
     34 C          58.7569   89.8828    6.6154 C.3     1  UNL1        0.2447
     35 C          59.1790   90.8163    5.5199 C.ar    1  UNL1        0.0714
     36 C          60.5709   90.9737    4.9831 C.ar    1  UNL1        0.1053
     37 N          60.5355   92.0111    3.9002 N.ar    1  UNL1       -0.2350
     38 C          59.1218   92.4949    3.7677 C.ar    1  UNL1        0.1343
     39 S          58.2835   91.7564    4.7687 S.2     1  UNL1       -0.0652
     40 C          61.2711   87.4445   11.0730 C.3     1  UNL1        0.0485
     41 C          62.0417   86.2617   10.5659 C.ar    1  UNL1       -0.0204
     42 C          62.3852   85.1358   11.4956 C.ar    1  UNL1       -0.0042
     43 C          63.1557   83.9530   10.9885 C.ar    1  UNL1       -0.0003
     44 C          63.5827   83.8960    9.5517 C.ar    1  UNL1       -0.0000
     45 C          63.2392   85.0218    8.6220 C.ar    1  UNL1       -0.0003
     46 C          62.4687   86.2047    9.1291 C.ar    1  UNL1       -0.0042
@<TRIPOS>BOND
     1    15    16    1
     2    16    13    1
     3    13    14    1
     4    13     4    1
     5     4     5   ar
     6     5     6   ar
     7     6     7   ar
     8     7     8   ar
     9     8     9   ar
    10     9     1    1
    11     1     2    2
    12     1     3   am
    13     3    17    1
    14    17    18    1
    15    18    19    1
    16    19    20    1
    17    20    21    1
    18    21    22    1
    19    22    23    1
    20     3    24    1
    21    24    25    1
    22    25    26    1
    23    25    28    1
    24    28    40    1
    25    40    41    1
    26    41    42   ar
    27    42    43   ar
    28    43    44   ar
    29    44    45   ar
    30    45    46   ar
    31    28    29    1
    32    29    30   am
    33    30    31    2
    34    30    33    1
    35    33    34    1
    36    34    35    1
    37    35    36   ar
    38    36    37   ar
    39    37    38   ar
    40    38    39   ar
    41     9    10   ar
    42    10    11   ar
    43    11    12   ar
    44    12     4   ar
    45    11     6   ar
    46    23    19    1
    47    46    41   ar
    48    39    35   ar
    49    26    27    1
    50    29    32    1
@<TRIPOS>MOLECULE
*****
 46 50 0 0 0
SMALL
GASTEIGER

@<TRIPOS>ATOM
      1 C          60.5561   87.0535    8.6482 C.2     1  UNL1        0.2492
      2 O          59.4089   86.5600    7.8174 O.2     1  UNL1       -0.2699
      3 N          60.7691   88.5267    8.8332 N.am    1  UNL1       -0.2721
      4 C          63.4917   83.2457   12.8482 C.ar    1  UNL1        0.2924
      5 N          64.1210   83.1891   11.4877 N.ar    1  UNL1       -0.1946
      6 C          63.3591   84.1142   10.5857 C.ar    1  UNL1        0.1202
      7 C          63.5249   84.4656    9.1369 C.ar    1  UNL1        0.0225
      8 C          62.5906   85.4453    8.4911 C.ar    1  UNL1        0.0063
      9 C          61.4905   86.0737    9.2941 C.ar    1  UNL1        0.0567
     10 C          61.3246   85.7223   10.7428 C.ar    1  UNL1        0.0437
     11 C          62.2589   84.7426   11.3886 C.ar    1  UNL1        0.1662
     12 O          62.3409   84.2058   12.7869 O.2     1  UNL1       -0.4237
     13 N          63.9354   82.4771   14.0575 N.pl3   1  UNL1       -0.2619
     14 C          64.5102   83.2025   15.2379 C.3     1  UNL1        0.1166
     15 C          62.6018   80.3239   13.4786 C.3     1  UNL1        0.0233
     16 C          63.8043   80.9832   14.0864 C.3     1  UNL1        0.0952
     17 C          59.8347   89.5065    8.1873 C.3     1  UNL1        0.1111
     18 C          59.2907   89.2324    6.8166 C.3     1  UNL1        0.0939
     19 N          59.0824   90.3626    5.8526 N.3     1  UNL1       -0.2712
     20 C          57.7600   90.9419    5.4457 C.3     1  UNL1        0.0722
     21 C          58.0202   92.0492    4.4678 C.3     1  UNL1        0.0188
     22 C          59.5035   92.1542    4.2704 C.3     1  UNL1        0.0188
     23 C          60.1599   91.1118    5.1263 C.3     1  UNL1        0.0722
     24 C          61.9163   89.0202    9.6640 C.3     1  UNL1        0.1246
     25 C          61.6998   89.3780   11.1046 C.3     1  UNL1        0.1484
     26 O          60.4561   88.9259   11.8109 O.3     1  UNL1       -0.3810
     27 H          59.9027   88.4174   11.1976 H       1  UNL1        0.2105
     28 C          62.7269   90.1879   11.8388 C.3     1  UNL1        0.1075
     29 N          63.8143   90.8873   11.0782 N.am    1  UNL1       -0.2695
     30 C          64.6502   91.9327   11.7554 C.2     1  UNL1        0.4020
     31 O          64.3987   92.2786   13.1931 O.2     1  UNL1       -0.2264
     32 H          63.9794   90.6603   10.1346 H       1  UNL1        0.1528
     33 O          65.7376   92.6321   10.9948 O.3     1  UNL1       -0.4291
     34 C          66.8269   93.3510   11.7341 C.3     1  UNL1        0.2447
     35 C          67.0915   93.0322   13.1757 C.ar    1  UNL1        0.0714
     36 C          66.6794   93.8653   14.3531 C.ar    1  UNL1        0.1053
     37 N          67.1479   93.1723   15.5982 N.ar    1  UNL1       -0.2350
     38 C          67.8496   91.9108   15.1904 C.ar    1  UNL1        0.1343
     39 S          67.8148   91.8242   13.6932 S.2     1  UNL1       -0.0652
     40 C          62.6667   90.2983   13.3335 C.3     1  UNL1        0.0485
     41 C          63.1334   89.1582   14.1892 C.ar    1  UNL1       -0.0204
     42 C          62.8961   89.1857   15.6700 C.ar    1  UNL1       -0.0042
     43 C          63.3628   88.0455   16.5257 C.ar    1  UNL1       -0.0003
     44 C          64.0669   86.8779   15.9006 C.ar    1  UNL1       -0.0000
     45 C          64.3042   86.8503   14.4198 C.ar    1  UNL1       -0.0003
     46 C          63.8375   87.9905   13.5641 C.ar    1  UNL1       -0.0042
@<TRIPOS>BOND
     1    15    16    1
     2    16    13    1
     3    13    14    1
     4    13     4    1
     5     4     5   ar
     6     5     6   ar
     7     6     7   ar
     8     7     8   ar
     9     8     9   ar
    10     9     1    1
    11     1     2    2
    12     1     3   am
    13     3    17    1
    14    17    18    1
    15    18    19    1
    16    19    20    1
    17    20    21    1
    18    21    22    1
    19    22    23    1
    20     3    24    1
    21    24    25    1
    22    25    26    1
    23    25    28    1
    24    28    40    1
    25    40    41    1
    26    41    42   ar
    27    42    43   ar
    28    43    44   ar
    29    44    45   ar
    30    45    46   ar
    31    28    29    1
    32    29    30   am
    33    30    31    2
    34    30    33    1
    35    33    34    1
    36    34    35    1
    37    35    36   ar
    38    36    37   ar
    39    37    38   ar
    40    38    39   ar
    41     9    10   ar
    42    10    11   ar
    43    11    12   ar
    44    12     4   ar
    45    11     6   ar
    46    23    19    1
    47    46    41   ar
    48    39    35   ar
    49    26    27    1
    50    29    32    1
@<TRIPOS>MOLECULE
*****
 46 50 0 0 0
SMALL
GASTEIGER

@<TRIPOS>ATOM
      1 C          61.4935   89.2149   10.9201 C.2     1  UNL1        0.2492
      2 O          60.2470   89.7339   10.2668 O.2     1  UNL1       -0.2699
      3 N          61.6490   87.7455   11.1780 N.am    1  UNL1       -0.2721
      4 C          65.9224   93.8127   10.8803 C.ar    1  UNL1        0.2924
      5 N          65.8290   93.1201   12.2075 N.ar    1  UNL1       -0.1946
      6 C          64.7662   92.0664   12.1068 C.ar    1  UNL1        0.1202
      7 C          64.2388   91.0745   13.1008 C.ar    1  UNL1        0.0225
      8 C          63.1479   90.1241   12.7052 C.ar    1  UNL1        0.0063
      9 C          62.5844   90.1655   11.3157 C.ar    1  UNL1        0.0567
     10 C          63.1119   91.1573   10.3217 C.ar    1  UNL1        0.0437
     11 C          64.2028   92.1077   10.7172 C.ar    1  UNL1        0.1662
     12 O          64.9174   93.1870    9.9593 O.2     1  UNL1       -0.4237
     13 N          66.8568   94.9341   10.5348 N.pl3   1  UNL1       -0.2619
     14 C          66.7019   96.2707   11.1978 C.3     1  UNL1        0.1166
     15 C          68.3875   93.3267    9.1845 C.3     1  UNL1        0.0233
     16 C          67.9461   94.7190    9.5263 C.3     1  UNL1        0.0952
     17 C          60.5580   86.7950   10.7825 C.3     1  UNL1        0.1111
     18 C          60.1498   86.6787    9.3438 C.3     1  UNL1        0.0939
     19 N          61.0193   85.9330    8.3754 N.3     1  UNL1       -0.2712
     20 C          62.4891   85.6751    8.5280 C.3     1  UNL1        0.0722
     21 C          62.9499   84.8970    7.3313 C.3     1  UNL1        0.0188
     22 C          61.7649   84.6740    6.4390 C.3     1  UNL1        0.0188
     23 C          60.5717   85.3143    7.0844 C.3     1  UNL1        0.0722
     24 C          62.8955   87.2265   11.8314 C.3     1  UNL1        0.1246
     25 C          62.9634   85.8001   12.2905 C.3     1  UNL1        0.1484
     26 O          62.0716   84.7680   11.6665 O.3     1  UNL1       -0.3810
     27 H          61.5176   85.1865   10.9891 H       1  UNL1        0.2105
     28 C          63.9233   85.4058   13.3737 C.3     1  UNL1        0.1075
     29 N          64.2210   83.9565   13.6208 N.am    1  UNL1       -0.2695
     30 C          63.2023   83.0858   14.2947 C.2     1  UNL1        0.4020
     31 O          61.8858   83.6644   14.7213 O.2     1  UNL1       -0.2264
     32 H          65.0851   83.5767   13.3408 H       1  UNL1        0.1528
     33 O          63.5001   81.6365   14.5418 O.3     1  UNL1       -0.4291
     34 C          62.6991   80.5769   13.8450 C.3     1  UNL1        0.2447
     35 C          62.8231   80.3974   12.3610 C.ar    1  UNL1        0.0714
     36 C          62.6132   79.1177   11.6070 C.ar    1  UNL1        0.1053
     37 N          62.8392   79.3955   10.1504 N.ar    1  UNL1       -0.2350
     38 C          63.1888   80.8468   10.0040 C.ar    1  UNL1        0.1343
     39 S          63.1788   81.4661   11.3703 S.2     1  UNL1       -0.0652
     40 C          64.5853   86.4606   14.2096 C.3     1  UNL1        0.0485
     41 C          63.9424   86.9203   15.4845 C.ar    1  UNL1       -0.0204
     42 C          63.5214   85.9165   16.5166 C.ar    1  UNL1       -0.0042
     43 C          62.8785   86.3762   17.7915 C.ar    1  UNL1       -0.0003
     44 C          62.6565   87.8396   18.0343 C.ar    1  UNL1       -0.0000
     45 C          63.0775   88.8434   17.0023 C.ar    1  UNL1       -0.0003
     46 C          63.7204   88.3837   15.7274 C.ar    1  UNL1       -0.0042
@<TRIPOS>BOND
     1    15    16    1
     2    16    13    1
     3    13    14    1
     4    13     4    1
     5     4     5   ar
     6     5     6   ar
     7     6     7   ar
     8     7     8   ar
     9     8     9   ar
    10     9     1    1
    11     1     2    2
    12     1     3   am
    13     3    17    1
    14    17    18    1
    15    18    19    1
    16    19    20    1
    17    20    21    1
    18    21    22    1
    19    22    23    1
    20     3    24    1
    21    24    25    1
    22    25    26    1
    23    25    28    1
    24    28    40    1
    25    40    41    1
    26    41    42   ar
    27    42    43   ar
    28    43    44   ar
    29    44    45   ar
    30    45    46   ar
    31    28    29    1
    32    29    30   am
    33    30    31    2
    34    30    33    1
    35    33    34    1
    36    34    35    1
    37    35    36   ar
    38    36    37   ar
    39    37    38   ar
    40    38    39   ar
    41     9    10   ar
    42    10    11   ar
    43    11    12   ar
    44    12     4   ar
    45    11     6   ar
    46    23    19    1
    47    46    41   ar
    48    39    35   ar
    49    26    27    1
    50    29    32    1
