@<TRIPOS>MOLECULE
*****
 30 33 0 0 0
SMALL
GASTEIGER

@<TRIPOS>ATOM
      1 N          65.4184   91.2987   13.3890 N.am    1  UNL1       -0.2904
      2 C          64.1130   90.6875   13.8037 C.2     1  UNL1        0.2670
      3 O          63.3434   91.2696   14.9522 O.2     1  UNL1       -0.2684
      4 H          65.9234   90.9166   12.6352 H       1  UNL1        0.1503
      5 C          63.5769   89.4940   13.0698 C.ar    1  UNL1        0.1720
      6 N          63.8344   88.0574   13.4159 N.ar    1  UNL1       -0.0727
      7 O          63.1059   87.2032   12.4210 O.2     1  UNL1       -0.3536
      8 C          62.3983   88.1120   11.4601 C.ar    1  UNL1        0.1726
      9 C          62.6894   89.5278   11.8611 C.ar    1  UNL1        0.0406
     10 C          62.1086   90.6648   11.0737 C.3     1  UNL1        0.0360
     11 C          61.2368   90.3861    9.8854 C.3     1  UNL1        0.0313
     12 C          60.9457   88.9702    9.4844 C.ar    1  UNL1       -0.0188
     13 C          60.0738   88.6915    8.2960 C.ar    1  UNL1       -0.0042
     14 C          59.7827   87.2757    7.8951 C.ar    1  UNL1       -0.0003
     15 C          60.3635   86.1387    8.6824 C.ar    1  UNL1        0.0001
     16 C          61.2353   86.4174    9.8708 C.ar    1  UNL1        0.0028
     17 C          61.5264   87.8332   10.2717 C.ar    1  UNL1        0.0330
     18 C          65.9545   92.4922   14.1228 C.3     1  UNL1        0.1945
     19 C          66.3011   92.3842   15.5782 C.2     1  UNL1        0.3369
     20 O          65.2530   92.6418   16.6199 O.2     1  UNL1       -0.2482
     21 O          67.6958   92.0185   15.9919 O.3     1  UNL1       -0.4511
     22 C          69.2833   94.0736   16.0721 C.3     1  UNL1        0.0473
     23 C          68.8653   92.7788   15.4405 C.3     1  UNL1        0.1691
     24 C          69.6169   92.2444   14.2574 C.3     1  UNL1        0.0473
     25 C          66.1440   93.7935   13.4013 C.3     1  UNL1        0.1386
     26 N          66.4752   93.7986   11.9383 N.ar    1  UNL1       -0.3055
     27 C          66.2192   94.9240   10.9803 C.ar    1  UNL1        0.0981
     28 C          66.7063   94.5000    9.6264 C.ar    1  UNL1        0.1193
     29 N          67.2633   93.1126    9.7477 N.ar    1  UNL1       -0.2223
     30 C          67.1205   92.6791   11.1766 C.ar    1  UNL1        0.1787
@<TRIPOS>BOND
     1    22    23    1
     2    23    24    1
     3    23    21    1
     4    21    19    1
     5    19    20    2
     6    19    18    1
     7    18    25    1
     8    25    26    1
     9    26    27   ar
    10    27    28   ar
    11    28    29   ar
    12    29    30   ar
    13    18     1    1
    14     1     2   am
    15     2     3    2
    16     2     5    1
    17     5     6   ar
    18     6     7   ar
    19     7     8   ar
    20     8     9   ar
    21     9    10    1
    22    10    11    1
    23    11    12    1
    24    12    13   ar
    25    13    14   ar
    26    14    15   ar
    27    15    16   ar
    28    16    17   ar
    29    30    26   ar
    30     9     5   ar
    31    17    12   ar
    32    17     8    1
    33     1     4    1
@<TRIPOS>MOLECULE
*****
 30 33 0 0 0
SMALL
GASTEIGER

@<TRIPOS>ATOM
      1 N          65.4397   91.0999   13.4378 N.am    1  UNL1       -0.2904
      2 C          64.0994   90.5262   13.7905 C.2     1  UNL1        0.2670
      3 O          63.2410   91.2025   14.8180 O.2     1  UNL1       -0.2684
      4 H          66.0031   90.6560   12.7634 H       1  UNL1        0.1503
      5 C          63.6176   89.2761   13.1158 C.ar    1  UNL1        0.1720
      6 N          62.8193   89.2104   11.8476 N.ar    1  UNL1       -0.0727
      7 O          62.5578   87.7659   11.5389 O.2     1  UNL1       -0.3536
      8 C          63.1945   86.9391   12.6163 C.ar    1  UNL1        0.1726
      9 C          63.8495   87.8724   13.5909 C.ar    1  UNL1        0.0406
     10 C          64.5724   87.3234   14.7850 C.3     1  UNL1        0.0360
     11 C          64.6404   85.8412   15.0046 C.3     1  UNL1        0.0313
     12 C          63.9854   84.9078   14.0300 C.ar    1  UNL1       -0.0188
     13 C          64.0534   83.4255   14.2495 C.ar    1  UNL1       -0.0042
     14 C          63.3984   82.4922   13.2749 C.ar    1  UNL1       -0.0003
     15 C          62.6754   83.0412   12.0808 C.ar    1  UNL1        0.0001
     16 C          62.6075   84.5234   11.8612 C.ar    1  UNL1        0.0028
     17 C          63.2625   85.4567   12.8358 C.ar    1  UNL1        0.0330
     18 C          65.9216   92.3500   14.1124 C.3     1  UNL1        0.1945
     19 C          66.2789   92.3260   15.5691 C.2     1  UNL1        0.3369
     20 O          65.2342   92.6264   16.6027 O.2     1  UNL1       -0.2482
     21 O          67.6810   92.0014   15.9921 O.3     1  UNL1       -0.4511
     22 C          69.2596   94.0647   16.0232 C.3     1  UNL1        0.0473
     23 C          68.8351   92.7629   15.4106 C.3     1  UNL1        0.1691
     24 C          69.5647   92.2226   14.2165 C.3     1  UNL1        0.0473
     25 C          66.0462   93.6240   13.3306 C.3     1  UNL1        0.1386
     26 N          66.4798   93.5837   11.8952 N.ar    1  UNL1       -0.3055
     27 C          66.2062   94.6358   10.8616 C.ar    1  UNL1        0.0981
     28 C          66.8204   94.1865    9.5690 C.ar    1  UNL1        0.1193
     29 N          67.4735   92.8567    9.8037 N.ar    1  UNL1       -0.2223
     30 C          67.2630   92.4841   11.2413 C.ar    1  UNL1        0.1787
@<TRIPOS>BOND
     1    22    23    1
     2    23    24    1
     3    23    21    1
     4    21    19    1
     5    19    20    2
     6    19    18    1
     7    18    25    1
     8    25    26    1
     9    26    27   ar
    10    27    28   ar
    11    28    29   ar
    12    29    30   ar
    13    18     1    1
    14     1     2   am
    15     2     3    2
    16     2     5    1
    17     5     6   ar
    18     6     7   ar
    19     7     8   ar
    20     8     9   ar
    21     9    10    1
    22    10    11    1
    23    11    12    1
    24    12    13   ar
    25    13    14   ar
    26    14    15   ar
    27    15    16   ar
    28    16    17   ar
    29    30    26   ar
    30     9     5   ar
    31    17    12   ar
    32    17     8    1
    33     1     4    1
@<TRIPOS>MOLECULE
*****
 30 33 0 0 0
SMALL
GASTEIGER

@<TRIPOS>ATOM
      1 N          62.5102   87.7525   10.0235 N.am    1  UNL1       -0.2904
      2 C          62.1395   88.7812   11.0502 C.2     1  UNL1        0.2670
      3 O          60.8975   88.6061   11.8729 O.2     1  UNL1       -0.2684
      4 H          63.3254   87.8675    9.4836 H       1  UNL1        0.1503
      5 C          63.0108   89.9851   11.2543 C.ar    1  UNL1        0.1720
      6 N          63.2298   91.0926   10.2667 N.ar    1  UNL1       -0.0727
      7 O          64.1704   92.0848   10.8839 O.2     1  UNL1       -0.3536
      8 C          64.5327   91.5904   12.2529 C.ar    1  UNL1        0.1726
      9 C          63.8160   90.2927   12.4819 C.ar    1  UNL1        0.0406
     10 C          63.9893   89.5589   13.7786 C.3     1  UNL1        0.0360
     11 C          64.8792   90.1227   14.8463 C.3     1  UNL1        0.0313
     12 C          65.5959   91.4204   14.6174 C.ar    1  UNL1       -0.0188
     13 C          66.4859   91.9842   15.6851 C.ar    1  UNL1       -0.0042
     14 C          67.2025   93.2819   15.4562 C.ar    1  UNL1       -0.0003
     15 C          67.0292   94.0157   14.1595 C.ar    1  UNL1        0.0001
     16 C          66.1393   93.4519   13.0917 C.ar    1  UNL1        0.0028
     17 C          65.4227   92.1543   13.3207 C.ar    1  UNL1        0.0330
     18 C          61.6390   86.5486    9.8194 C.3     1  UNL1        0.1945
     19 C          60.7930   86.4356    8.5858 C.2     1  UNL1        0.3369
     20 O          61.2165   85.5317    7.4662 O.2     1  UNL1       -0.2482
     21 O          59.5236   87.2266    8.4720 O.3     1  UNL1       -0.4511
     22 C          59.9363   89.7573    8.8903 C.3     1  UNL1        0.0473
     23 C          59.5621   88.6377    7.9647 C.3     1  UNL1        0.1691
     24 C          59.2264   88.9292    6.5321 C.3     1  UNL1        0.0473
     25 C          61.6137   85.4578   10.8486 C.3     1  UNL1        0.1386
     26 N          62.7416   84.4718   10.9244 N.ar    1  UNL1       -0.3055
     27 C          63.2184   83.7710   12.1619 C.ar    1  UNL1        0.0981
     28 C          64.3622   82.8796   11.7782 C.ar    1  UNL1        0.1193
     29 N          64.5923   83.0296   10.3036 N.ar    1  UNL1       -0.2223
     30 C          63.5907   84.0136    9.7759 C.ar    1  UNL1        0.1787
@<TRIPOS>BOND
     1    22    23    1
     2    23    24    1
     3    23    21    1
     4    21    19    1
     5    19    20    2
     6    19    18    1
     7    18    25    1
     8    25    26    1
     9    26    27   ar
    10    27    28   ar
    11    28    29   ar
    12    29    30   ar
    13    18     1    1
    14     1     2   am
    15     2     3    2
    16     2     5    1
    17     5     6   ar
    18     6     7   ar
    19     7     8   ar
    20     8     9   ar
    21     9    10    1
    22    10    11    1
    23    11    12    1
    24    12    13   ar
    25    13    14   ar
    26    14    15   ar
    27    15    16   ar
    28    16    17   ar
    29    30    26   ar
    30     9     5   ar
    31    17    12   ar
    32    17     8    1
    33     1     4    1
@<TRIPOS>MOLECULE
*****
 30 33 0 0 0
SMALL
GASTEIGER

@<TRIPOS>ATOM
      1 N          64.9379   91.5016   12.1225 N.am    1  UNL1       -0.2904
      2 C          63.9648   90.6791   12.9139 C.2     1  UNL1        0.2670
      3 O          63.6263   91.0671   14.3227 O.2     1  UNL1       -0.2684
      4 H          65.1600   91.2469   11.1979 H       1  UNL1        0.1503
      5 C          63.3299   89.4684   12.2963 C.ar    1  UNL1        0.1720
      6 N          63.5249   88.0483   12.7382 N.ar    1  UNL1       -0.0727
      7 O          62.7042   87.1676   11.8434 O.2     1  UNL1       -0.3536
      8 C          62.0020   88.0434   10.8485 C.ar    1  UNL1        0.1726
      9 C          62.3887   89.4653   11.1284 C.ar    1  UNL1        0.0406
     10 C          61.8337   90.5737   10.2836 C.3     1  UNL1        0.0360
     11 C          60.8921   90.2600    9.1589 C.3     1  UNL1        0.0313
     12 C          60.5053   88.8380    8.8790 C.ar    1  UNL1       -0.0188
     13 C          59.5637   88.5243    7.7544 C.ar    1  UNL1       -0.0042
     14 C          59.1770   87.1023    7.4745 C.ar    1  UNL1       -0.0003
     15 C          59.7319   85.9940    8.3193 C.ar    1  UNL1        0.0001
     16 C          60.6736   86.3077    9.4439 C.ar    1  UNL1        0.0028
     17 C          61.0603   87.7296    9.7238 C.ar    1  UNL1        0.0330
     18 C          65.5728   92.7124   12.7400 C.3     1  UNL1        0.1945
     19 C          65.8857   93.9097   11.8924 C.2     1  UNL1        0.3369
     20 O          66.2076   95.2238   12.5402 O.2     1  UNL1       -0.2482
     21 O          65.8767   93.7930   10.3970 O.3     1  UNL1       -0.4511
     22 C          67.9523   92.3200    9.8755 C.3     1  UNL1        0.0473
     23 C          67.1614   93.5753    9.6540 C.3     1  UNL1        0.1691
     24 C          67.6551   94.6126    8.6895 C.3     1  UNL1        0.0473
     25 C          65.8947   92.7257   14.2050 C.3     1  UNL1        0.1386
     26 N          67.3183   92.8579   14.6589 N.ar    1  UNL1       -0.3055
     27 C          67.7872   93.5640   15.8964 C.ar    1  UNL1        0.0981
     28 C          69.2816   93.4497   15.9572 C.ar    1  UNL1        0.1193
     29 N          69.7362   92.6729   14.7572 N.ar    1  UNL1       -0.2223
     30 C          68.5229   92.3072   13.9548 C.ar    1  UNL1        0.1787
@<TRIPOS>BOND
     1    22    23    1
     2    23    24    1
     3    23    21    1
     4    21    19    1
     5    19    20    2
     6    19    18    1
     7    18    25    1
     8    25    26    1
     9    26    27   ar
    10    27    28   ar
    11    28    29   ar
    12    29    30   ar
    13    18     1    1
    14     1     2   am
    15     2     3    2
    16     2     5    1
    17     5     6   ar
    18     6     7   ar
    19     7     8   ar
    20     8     9   ar
    21     9    10    1
    22    10    11    1
    23    11    12    1
    24    12    13   ar
    25    13    14   ar
    26    14    15   ar
    27    15    16   ar
    28    16    17   ar
    29    30    26   ar
    30     9     5   ar
    31    17    12   ar
    32    17     8    1
    33     1     4    1
@<TRIPOS>MOLECULE
*****
 30 33 0 0 0
SMALL
GASTEIGER

@<TRIPOS>ATOM
      1 N          65.0918   91.1866   12.4835 N.am    1  UNL1       -0.2904
      2 C          63.9809   90.4839   13.2058 C.2     1  UNL1        0.2670
      3 O          63.3417   91.1235   14.4026 O.2     1  UNL1       -0.2684
      4 H          65.5113   90.7667   11.6980 H       1  UNL1        0.1503
      5 C          63.5090   89.1414   12.7313 C.ar    1  UNL1        0.1720
      6 N          62.6873   88.8788   11.5041 N.ar    1  UNL1       -0.0727
      7 O          62.4464   87.4009   11.4151 O.2     1  UNL1       -0.3536
      8 C          63.1192   86.7502   12.5872 C.ar    1  UNL1        0.1726
      9 C          63.7758   87.8258   13.4007 C.ar    1  UNL1        0.0406
     10 C          64.5320   87.4684   14.6458 C.3     1  UNL1        0.0360
     11 C          64.6315   86.0353   15.0775 C.3     1  UNL1        0.0313
     12 C          63.9748   84.9596   14.2640 C.ar    1  UNL1       -0.0188
     13 C          64.0743   83.5265   14.6957 C.ar    1  UNL1       -0.0042
     14 C          63.4176   82.4509   13.8822 C.ar    1  UNL1       -0.0003
     15 C          62.6614   82.8084   12.6371 C.ar    1  UNL1        0.0001
     16 C          62.5620   84.2414   12.2054 C.ar    1  UNL1        0.0028
     17 C          63.2186   85.3171   13.0189 C.ar    1  UNL1        0.0330
     18 C          65.5638   92.5291   12.9580 C.3     1  UNL1        0.1945
     19 C          65.9154   93.5951   11.9629 C.2     1  UNL1        0.3369
     20 O          66.1726   94.9983   12.4264 O.2     1  UNL1       -0.2482
     21 O          66.0096   93.2579   10.5044 O.3     1  UNL1       -0.4511
     22 C          68.2240   92.1777    9.6798 C.3     1  UNL1        0.0473
     23 C          67.3244   93.3729    9.7915 C.3     1  UNL1        0.1691
     24 C          67.7395   94.6829    9.1902 C.3     1  UNL1        0.0473
     25 C          65.6843   92.8056   14.4273 C.3     1  UNL1        0.1386
     26 N          67.0384   92.8775   15.0684 N.ar    1  UNL1       -0.3055
     27 C          67.8290   94.1268   15.3212 C.ar    1  UNL1        0.0981
     28 C          69.1190   93.7341   15.9783 C.ar    1  UNL1        0.1193
     29 N          69.1256   92.2420   16.1316 N.ar    1  UNL1       -0.2223
     30 C          67.8397   91.7125   15.5692 C.ar    1  UNL1        0.1787
@<TRIPOS>BOND
     1    22    23    1
     2    23    24    1
     3    23    21    1
     4    21    19    1
     5    19    20    2
     6    19    18    1
     7    18    25    1
     8    25    26    1
     9    26    27   ar
    10    27    28   ar
    11    28    29   ar
    12    29    30   ar
    13    18     1    1
    14     1     2   am
    15     2     3    2
    16     2     5    1
    17     5     6   ar
    18     6     7   ar
    19     7     8   ar
    20     8     9   ar
    21     9    10    1
    22    10    11    1
    23    11    12    1
    24    12    13   ar
    25    13    14   ar
    26    14    15   ar
    27    15    16   ar
    28    16    17   ar
    29    30    26   ar
    30     9     5   ar
    31    17    12   ar
    32    17     8    1
    33     1     4    1
@<TRIPOS>MOLECULE
*****
 30 33 0 0 0
SMALL
GASTEIGER

@<TRIPOS>ATOM
      1 N          62.4092   90.0664   14.6869 N.am    1  UNL1       -0.2904
      2 C          63.0026   89.9583   13.3137 C.2     1  UNL1        0.2670
      3 O          64.4923   89.9648   13.1377 O.2     1  UNL1       -0.2684
      4 H          61.4315   90.0621   14.8024 H       1  UNL1        0.1503
      5 C          62.1064   89.8437   12.1162 C.ar    1  UNL1        0.1720
      6 N          61.2267   90.9271   11.5665 N.ar    1  UNL1       -0.0727
      7 O          60.5091   90.3785   10.3689 O.2     1  UNL1       -0.3536
      8 C          60.9455   88.9561   10.1785 C.ar    1  UNL1        0.1726
      9 C          61.9326   88.6255   11.2584 C.ar    1  UNL1        0.0406
     10 C          62.5457   87.2580   11.3212 C.3     1  UNL1        0.0360
     11 C          62.1716   86.2210   10.3040 C.3     1  UNL1        0.0313
     12 C          61.1845   86.5515    9.2240 C.ar    1  UNL1       -0.0188
     13 C          60.8104   85.5145    8.2068 C.ar    1  UNL1       -0.0042
     14 C          59.8233   85.8451    7.1269 C.ar    1  UNL1       -0.0003
     15 C          59.2102   87.2127    7.0642 C.ar    1  UNL1        0.0001
     16 C          59.5842   88.2496    8.0814 C.ar    1  UNL1        0.0028
     17 C          60.5714   87.9191    9.1613 C.ar    1  UNL1        0.0330
     18 C          63.3053   90.1810   15.8844 C.3     1  UNL1        0.1945
     19 C          64.2536   91.3371   16.0035 C.2     1  UNL1        0.3369
     20 O          63.8386   92.5746   16.7427 O.2     1  UNL1       -0.2482
     21 O          65.6170   91.2558   15.3833 O.3     1  UNL1       -0.4511
     22 C          66.2358   93.2647   13.8564 C.3     1  UNL1        0.0473
     23 C          66.4064   92.5079   15.1403 C.3     1  UNL1        0.1691
     24 C          67.3662   93.0033   16.1812 C.3     1  UNL1        0.0473
     25 C          63.2532   89.1396   16.9627 C.3     1  UNL1        0.1386
     26 N          63.3301   87.6850   16.6049 N.ar    1  UNL1       -0.3055
     27 C          64.0913   87.0995   15.4526 C.ar    1  UNL1        0.0981
     28 C          63.8909   85.6131   15.4721 C.ar    1  UNL1        0.1193
     29 N          63.0058   85.2800   16.6364 N.ar    1  UNL1       -0.2223
     30 C          62.6592   86.5604   17.3365 C.ar    1  UNL1        0.1787
@<TRIPOS>BOND
     1    22    23    1
     2    23    24    1
     3    23    21    1
     4    21    19    1
     5    19    20    2
     6    19    18    1
     7    18    25    1
     8    25    26    1
     9    26    27   ar
    10    27    28   ar
    11    28    29   ar
    12    29    30   ar
    13    18     1    1
    14     1     2   am
    15     2     3    2
    16     2     5    1
    17     5     6   ar
    18     6     7   ar
    19     7     8   ar
    20     8     9   ar
    21     9    10    1
    22    10    11    1
    23    11    12    1
    24    12    13   ar
    25    13    14   ar
    26    14    15   ar
    27    15    16   ar
    28    16    17   ar
    29    30    26   ar
    30     9     5   ar
    31    17    12   ar
    32    17     8    1
    33     1     4    1
@<TRIPOS>MOLECULE
*****
 30 33 0 0 0
SMALL
GASTEIGER

@<TRIPOS>ATOM
      1 N          64.9316   89.2677   14.1948 N.am    1  UNL1       -0.2904
      2 C          63.7816   88.5781   14.8670 C.2     1  UNL1        0.2670
      3 O          62.6346   89.3823   15.4035 O.2     1  UNL1       -0.2684
      4 H          65.6843   88.7398   13.8427 H       1  UNL1        0.1503
      5 C          63.7785   87.0842   15.0026 C.ar    1  UNL1        0.1720
      6 N          64.0564   86.3123   16.2584 N.ar    1  UNL1       -0.0727
      7 O          63.9466   84.8510   15.9382 O.2     1  UNL1       -0.3536
      8 C          63.6009   84.7198   14.4845 C.ar    1  UNL1        0.1726
      9 C          63.4970   86.0999   13.9063 C.ar    1  UNL1        0.0406
     10 C          63.1594   86.2821   12.4562 C.3     1  UNL1        0.0360
     11 C          62.9258   85.0842   11.5842 C.3     1  UNL1        0.0313
     12 C          63.0297   83.7039   12.1624 C.ar    1  UNL1       -0.0188
     13 C          62.7961   82.5060   11.2905 C.ar    1  UNL1       -0.0042
     14 C          62.9000   81.1259   11.8688 C.ar    1  UNL1       -0.0003
     15 C          63.2375   80.9437   13.3189 C.ar    1  UNL1        0.0001
     16 C          63.4711   82.1416   14.1908 C.ar    1  UNL1        0.0028
     17 C          63.3672   83.5218   13.6126 C.ar    1  UNL1        0.0330
     18 C          64.9347   90.7616   14.0591 C.3     1  UNL1        0.1945
     19 C          64.4126   91.4020   12.8072 C.2     1  UNL1        0.3369
     20 O          63.6743   90.5775   11.7947 O.2     1  UNL1       -0.2482
     21 O          64.6289   92.8669   12.5677 O.3     1  UNL1       -0.4511
     22 C          66.2926   92.3995   10.6277 C.3     1  UNL1        0.0473
     23 C          65.7427   93.3242   11.6730 C.3     1  UNL1        0.1691
     24 C          66.3065   94.7060   11.8238 C.3     1  UNL1        0.0473
     25 C          65.4600   91.6150   15.1752 C.3     1  UNL1        0.1386
     26 N          66.8529   92.1671   15.1055 N.ar    1  UNL1       -0.3055
     27 C          67.4710   93.1261   16.0793 C.ar    1  UNL1        0.0981
     28 C          68.8724   93.4088   15.6253 C.ar    1  UNL1        0.1193
     29 N          69.1204   92.6246   14.3709 N.ar    1  UNL1       -0.2223
     30 C          67.8723   91.8572   14.0496 C.ar    1  UNL1        0.1787
@<TRIPOS>BOND
     1    22    23    1
     2    23    24    1
     3    23    21    1
     4    21    19    1
     5    19    20    2
     6    19    18    1
     7    18    25    1
     8    25    26    1
     9    26    27   ar
    10    27    28   ar
    11    28    29   ar
    12    29    30   ar
    13    18     1    1
    14     1     2   am
    15     2     3    2
    16     2     5    1
    17     5     6   ar
    18     6     7   ar
    19     7     8   ar
    20     8     9   ar
    21     9    10    1
    22    10    11    1
    23    11    12    1
    24    12    13   ar
    25    13    14   ar
    26    14    15   ar
    27    15    16   ar
    28    16    17   ar
    29    30    26   ar
    30     9     5   ar
    31    17    12   ar
    32    17     8    1
    33     1     4    1
@<TRIPOS>MOLECULE
*****
 30 33 0 0 0
SMALL
GASTEIGER

@<TRIPOS>ATOM
      1 N          62.3306   87.7869   10.2361 N.am    1  UNL1       -0.2904
      2 C          61.8569   89.0780   10.8349 C.2     1  UNL1        0.2670
      3 O          60.4146   89.2458   11.2111 O.2     1  UNL1       -0.2684
      4 H          63.2772   87.6768    9.9892 H       1  UNL1        0.1503
      5 C          62.8257   90.2014   11.0575 C.ar    1  UNL1        0.1720
      6 N          63.1810   91.2689   10.0654 N.ar    1  UNL1       -0.0727
      7 O          64.1841   92.1818   10.7061 O.2     1  UNL1       -0.3536
      8 C          64.4487   91.6785   12.0941 C.ar    1  UNL1        0.1726
      9 C          63.6092   90.4546   12.3113 C.ar    1  UNL1        0.0406
     10 C          63.6666   89.7288   13.6228 C.3     1  UNL1        0.0360
     11 C          64.5635   90.2268   14.7170 C.3     1  UNL1        0.0313
     12 C          65.4031   91.4508   14.4998 C.ar    1  UNL1       -0.0188
     13 C          66.3001   91.9489   15.5940 C.ar    1  UNL1       -0.0042
     14 C          67.1396   93.1728   15.3768 C.ar    1  UNL1       -0.0003
     15 C          67.0822   93.8986   14.0654 C.ar    1  UNL1        0.0001
     16 C          66.1852   93.4005   12.9711 C.ar    1  UNL1        0.0028
     17 C          65.3457   92.1766   13.1884 C.ar    1  UNL1        0.0330
     18 C          61.3619   86.6634   10.0135 C.3     1  UNL1        0.1945
     19 C          60.5571   86.6067    8.7489 C.2     1  UNL1        0.3369
     20 O          59.0636   86.7350    8.8040 O.2     1  UNL1       -0.2482
     21 O          61.2457   86.4216    7.4293 O.3     1  UNL1       -0.4511
     22 C          63.1899   84.7952    7.9992 C.3     1  UNL1        0.0473
     23 C          62.0074   85.1597    7.1513 C.3     1  UNL1        0.1691
     24 C          61.5867   84.2623    6.0254 C.3     1  UNL1        0.0473
     25 C          61.1980   85.5967   11.0553 C.3     1  UNL1        0.1386
     26 N          62.4073   84.9616   11.6750 N.ar    1  UNL1       -0.3055
     27 C          63.1024   83.7256   11.1860 C.ar    1  UNL1        0.0981
     28 C          64.2586   83.4510   12.1014 C.ar    1  UNL1        0.1193
     29 N          64.2780   84.5174   13.1560 N.ar    1  UNL1       -0.2223
     30 C          63.1340   85.4510   12.8926 C.ar    1  UNL1        0.1787
@<TRIPOS>BOND
     1    22    23    1
     2    23    24    1
     3    23    21    1
     4    21    19    1
     5    19    20    2
     6    19    18    1
     7    18    25    1
     8    25    26    1
     9    26    27   ar
    10    27    28   ar
    11    28    29   ar
    12    29    30   ar
    13    18     1    1
    14     1     2   am
    15     2     3    2
    16     2     5    1
    17     5     6   ar
    18     6     7   ar
    19     7     8   ar
    20     8     9   ar
    21     9    10    1
    22    10    11    1
    23    11    12    1
    24    12    13   ar
    25    13    14   ar
    26    14    15   ar
    27    15    16   ar
    28    16    17   ar
    29    30    26   ar
    30     9     5   ar
    31    17    12   ar
    32    17     8    1
    33     1     4    1
@<TRIPOS>MOLECULE
*****
 30 33 0 0 0
SMALL
GASTEIGER

@<TRIPOS>ATOM
      1 N          63.9816   89.2953   12.4986 N.am    1  UNL1       -0.2904
      2 C          62.6341   88.7770   12.0921 C.2     1  UNL1        0.2670
      3 O          61.4523   89.7004   12.0645 O.2     1  UNL1       -0.2684
      4 H          64.7572   88.6892   12.5166 H       1  UNL1        0.1503
      5 C          62.4683   87.3351   11.7131 C.ar    1  UNL1        0.1720
      6 N          61.8040   86.8208   10.4705 N.ar    1  UNL1       -0.0727
      7 O          61.8628   85.3222   10.4997 O.2     1  UNL1       -0.3536
      8 C          62.5634   84.9104   11.7604 C.ar    1  UNL1        0.1726
      9 C          62.9376   86.1544   12.5104 C.ar    1  UNL1        0.0406
     10 C          63.6574   86.0512   13.8223 C.3     1  UNL1        0.0360
     11 C          64.0030   84.7042   14.3843 C.3     1  UNL1        0.0313
     12 C          63.6288   83.4601   13.6344 C.ar    1  UNL1       -0.0188
     13 C          63.9744   82.1130   14.1964 C.ar    1  UNL1       -0.0042
     14 C          63.6002   80.8691   13.4464 C.ar    1  UNL1       -0.0003
     15 C          62.8804   80.9722   12.1345 C.ar    1  UNL1        0.0001
     16 C          62.5348   82.3193   11.5725 C.ar    1  UNL1        0.0028
     17 C          62.9090   83.5632   12.3224 C.ar    1  UNL1        0.0330
     18 C          64.1476   90.7372   12.8775 C.3     1  UNL1        0.1945
     19 C          64.3286   91.7767   11.8114 C.2     1  UNL1        0.3369
     20 O          63.6418   91.6204   10.4871 O.2     1  UNL1       -0.2482
     21 O          65.1965   92.9726   12.0696 O.3     1  UNL1       -0.4511
     22 C          67.1443   92.5952   10.3922 C.3     1  UNL1        0.0473
     23 C          66.0999   93.4908   10.9901 C.3     1  UNL1        0.1691
     24 C          65.9591   94.9044   10.5086 C.3     1  UNL1        0.0473
     25 C          64.1324   91.1395   14.3225 C.3     1  UNL1        0.1386
     26 N          65.3887   91.6334   14.9767 N.ar    1  UNL1       -0.3055
     27 C          66.7900   91.3329   14.5341 C.ar    1  UNL1        0.0981
     28 C          67.7315   92.0283   15.4722 C.ar    1  UNL1        0.1193
     29 N          66.9120   92.7585   16.4945 N.ar    1  UNL1       -0.2223
     30 C          65.4640   92.5144   16.1883 C.ar    1  UNL1        0.1787
@<TRIPOS>BOND
     1    22    23    1
     2    23    24    1
     3    23    21    1
     4    21    19    1
     5    19    20    2
     6    19    18    1
     7    18    25    1
     8    25    26    1
     9    26    27   ar
    10    27    28   ar
    11    28    29   ar
    12    29    30   ar
    13    18     1    1
    14     1     2   am
    15     2     3    2
    16     2     5    1
    17     5     6   ar
    18     6     7   ar
    19     7     8   ar
    20     8     9   ar
    21     9    10    1
    22    10    11    1
    23    11    12    1
    24    12    13   ar
    25    13    14   ar
    26    14    15   ar
    27    15    16   ar
    28    16    17   ar
    29    30    26   ar
    30     9     5   ar
    31    17    12   ar
    32    17     8    1
    33     1     4    1
