@<TRIPOS>MOLECULE
*****
 37 41 0 0 0
SMALL
GASTEIGER

@<TRIPOS>ATOM
      1 C          65.0312   93.1632   10.9505 C.ar    1  UNL1        0.0728
      2 C          64.0823   92.2144   10.2801 C.ar    1  UNL1        0.0208
      3 C          63.8512   91.0578   11.2070 C.ar    1  UNL1        0.0370
      4 C          63.0110   89.8219   11.0795 C.ar    1  UNL1        0.1018
      5 N          62.9768   88.8199   12.1952 N.ar    1  UNL1       -0.2290
      6 C          63.7829   89.0539   13.4384 C.ar    1  UNL1        0.1337
      7 C          64.6231   90.2899   13.5659 C.ar    1  UNL1        0.0521
      8 C          64.6573   91.2919   12.4501 C.ar    1  UNL1        0.0740
      9 N          65.3865   92.5931   12.2916 N.ar    1  UNL1       -0.2441
     10 C          66.3092   93.2149   13.2976 C.2     1  UNL1        0.4210
     11 O          66.9706   94.5275   12.9980 O.2     1  UNL1       -0.2227
     12 C          67.7595   96.6636    8.0897 C.3     1  UNL1        0.1538
     13 N          66.7902   96.0643    9.0649 N.ar    1  UNL1       -0.2473
     14 C          66.6049   94.6010    9.3376 C.ar    1  UNL1        0.0981
     15 C          65.5361   94.4553   10.3799 C.ar    1  UNL1        0.0559
     16 C          65.0608   95.8287   10.7514 C.ar    1  UNL1        0.1231
     17 N          65.8358   96.8231    9.9387 N.ar    1  UNL1       -0.1675
     18 N          63.7486   88.0519   14.5541 N.pl3   1  UNL1       -0.2972
     19 H          63.8921   88.3445   15.4831 H       1  UNL1        0.1536
     20 C          63.4958   86.6041   14.2545 C.ar    1  UNL1        0.0600
     21 C          63.3726   86.1429   12.8324 C.ar    1  UNL1        0.0155
     22 C          63.1198   84.6950   12.5328 C.ar    1  UNL1        0.0028
     23 C          62.9902   83.7084   13.6551 C.ar    1  UNL1        0.0183
     24 C          63.1134   84.1695   15.0771 C.ar    1  UNL1        0.0141
     25 C          63.3662   85.6173   15.3768 C.ar    1  UNL1        0.0711
     26 CL         63.4894   86.0785   16.7988 Cl      1  UNL1       -0.0810
     27 C          62.7374   82.2605   13.3554 C.ar    1  UNL1        0.0805
     28 C          62.0083   81.2917   14.2384 C.ar    1  UNL1        0.1178
     29 N          61.9896   79.9597   13.5488 N.ar    1  UNL1       -0.2223
     30 C          62.7072   80.1054   12.2396 C.ar    1  UNL1        0.1786
     31 N          63.1693   81.5274   12.1201 N.ar    1  UNL1       -0.3070
     32 C          63.9299   82.1133   10.9676 C.3     1  UNL1        0.1320
     33 O          66.5704   92.5243   14.6032 O.3     1  UNL1       -0.4397
     34 C          67.9623   92.4743   15.1600 C.3     1  UNL1        0.1380
     35 C          67.4850   93.1450   16.4139 C.3     1  UNL1        0.0437
     36 C          68.4397   91.8035   13.9061 C.3     1  UNL1        0.0437
     37 C          69.3543   92.4242   15.7167 C.3     1  UNL1        0.0437
@<TRIPOS>BOND
     1    12    13    1
     2    13    14   ar
     3    14    15   ar
     4    15     1    1
     5     1     2   ar
     6     2     3   ar
     7     3     4   ar
     8     4     5   ar
     9     5     6   ar
    10     6    18    1
    11    18    20    1
    12    20    21   ar
    13    21    22   ar
    14    22    23   ar
    15    23    27    1
    16    27    28   ar
    17    28    29   ar
    18    29    30   ar
    19    30    31   ar
    20    31    32    1
    21    23    24   ar
    22    24    25   ar
    23    25    26    1
    24     6     7   ar
    25     7     8   ar
    26     8     9   ar
    27     9    10   am
    28    10    11    2
    29    10    33    1
    30    33    34    1
    31    34    35    1
    32    34    36    1
    33    34    37    1
    34    15    16   ar
    35    16    17   ar
    36    17    13   ar
    37     9     1   ar
    38     8     3   ar
    39    25    20   ar
    40    31    27   ar
    41    18    19    1
@<TRIPOS>MOLECULE
*****
 37 41 0 0 0
SMALL
GASTEIGER

@<TRIPOS>ATOM
      1 C          63.5717   84.4818   12.8424 C.ar    1  UNL1        0.0728
      2 C          64.1960   84.8636   14.1517 C.ar    1  UNL1        0.0208
      3 C          64.1091   86.3548   14.2894 C.ar    1  UNL1        0.0370
      4 C          64.5598   87.2908   15.3713 C.ar    1  UNL1        0.1018
      5 N          64.3324   88.7666   15.2290 N.ar    1  UNL1       -0.2290
      6 C          63.6543   89.3064   14.0047 C.ar    1  UNL1        0.1337
      7 C          63.2036   88.3703   12.9228 C.ar    1  UNL1        0.0521
      8 C          63.4310   86.8945   13.0651 C.ar    1  UNL1        0.0740
      9 N          63.0989   85.7369   12.1708 N.ar    1  UNL1       -0.2441
     10 C          62.4141   85.8200   10.8388 C.2     1  UNL1        0.4210
     11 O          62.1470   84.5701   10.0536 O.2     1  UNL1       -0.2227
     12 C          62.3828   79.3566   12.3953 C.3     1  UNL1        0.1538
     13 N          62.8963   80.7334   12.0944 N.ar    1  UNL1       -0.2473
     14 C          62.8038   81.9262   12.9992 C.ar    1  UNL1        0.0981
     15 C          63.4427   83.0893   12.2999 C.ar    1  UNL1        0.0559
     16 C          63.9301   82.6153   10.9628 C.ar    1  UNL1        0.1231
     17 N          63.5924   81.1593   10.8358 N.ar    1  UNL1       -0.1675
     18 N          63.4269   90.7822   13.8624 N.pl3   1  UNL1       -0.2972
     19 H          62.7512   91.2321   14.4194 H       1  UNL1        0.1536
     20 C          64.2291   91.5725   12.8715 C.ar    1  UNL1        0.0600
     21 C          63.8136   91.6113   11.4307 C.ar    1  UNL1        0.0155
     22 C          64.6158   92.4017   10.4398 C.ar    1  UNL1        0.0028
     23 C          65.8334   93.1532   10.8897 C.ar    1  UNL1        0.0183
     24 C          66.2489   93.1145   12.3305 C.ar    1  UNL1        0.0141
     25 C          65.4468   92.3242   13.3214 C.ar    1  UNL1        0.0711
     26 CL         65.8623   92.2854   14.7621 Cl      1  UNL1       -0.0810
     27 C          66.6356   93.9436    9.8988 C.ar    1  UNL1        0.0805
     28 C          67.7771   93.4255    9.0751 C.ar    1  UNL1        0.1178
     29 N          68.2841   94.5524    8.2248 N.ar    1  UNL1       -0.2223
     30 C          67.4558   95.7670    8.5230 C.ar    1  UNL1        0.1786
     31 N          66.4370   95.3907    9.5576 N.ar    1  UNL1       -0.3070
     32 C          65.4015   96.3016   10.1474 C.3     1  UNL1        0.1320
     33 O          61.9965   87.1528   10.2920 O.3     1  UNL1       -0.4397
     34 C          60.6913   87.2899    9.5656 C.3     1  UNL1        0.1380
     35 C          60.0711   87.8888   10.7930 C.3     1  UNL1        0.0437
     36 C          61.3115   86.6909    8.3381 C.3     1  UNL1        0.0437
     37 C          59.3861   87.4270    8.8391 C.3     1  UNL1        0.0437
@<TRIPOS>BOND
     1    12    13    1
     2    13    14   ar
     3    14    15   ar
     4    15     1    1
     5     1     2   ar
     6     2     3   ar
     7     3     4   ar
     8     4     5   ar
     9     5     6   ar
    10     6    18    1
    11    18    20    1
    12    20    21   ar
    13    21    22   ar
    14    22    23   ar
    15    23    27    1
    16    27    28   ar
    17    28    29   ar
    18    29    30   ar
    19    30    31   ar
    20    31    32    1
    21    23    24   ar
    22    24    25   ar
    23    25    26    1
    24     6     7   ar
    25     7     8   ar
    26     8     9   ar
    27     9    10   am
    28    10    11    2
    29    10    33    1
    30    33    34    1
    31    34    35    1
    32    34    36    1
    33    34    37    1
    34    15    16   ar
    35    16    17   ar
    36    17    13   ar
    37     9     1   ar
    38     8     3   ar
    39    25    20   ar
    40    31    27   ar
    41    18    19    1
@<TRIPOS>MOLECULE
*****
 37 41 0 0 0
SMALL
GASTEIGER

@<TRIPOS>ATOM
      1 C          62.6106   84.5107   11.4248 C.ar    1  UNL1        0.0728
      2 C          61.9318   85.1546   10.2523 C.ar    1  UNL1        0.0208
      3 C          61.9276   86.6378   10.4762 C.ar    1  UNL1        0.0370
      4 C          61.3955   87.7752    9.6557 C.ar    1  UNL1        0.1018
      5 N          61.5395   89.1853   10.1462 N.ar    1  UNL1       -0.2290
      6 C          62.2156   89.4582   11.4571 C.ar    1  UNL1        0.1337
      7 C          62.7477   88.3208   12.2775 C.ar    1  UNL1        0.0521
      8 C          62.6037   86.9106   11.7870 C.ar    1  UNL1        0.0740
      9 N          63.0258   85.5960   12.3733 N.ar    1  UNL1       -0.2441
     10 C          63.7381   85.4009   13.6789 C.2     1  UNL1        0.4210
     11 O          64.0979   84.0189   14.1379 O.2     1  UNL1       -0.2227
     12 C          62.3480   79.5978   13.3419 C.3     1  UNL1        0.1538
     13 N          62.7140   80.7816   12.4965 N.ar    1  UNL1       -0.2473
     14 C          62.2131   82.1837   12.6787 C.ar    1  UNL1        0.0981
     15 C          62.8347   83.0398   11.6153 C.ar    1  UNL1        0.0559
     16 C          63.7196   82.1668   10.7759 C.ar    1  UNL1        0.1231
     17 N          63.6451   80.7711   11.3205 N.ar    1  UNL1       -0.1675
     18 N          62.3596   90.8684   11.9475 N.pl3   1  UNL1       -0.2972
     19 H          61.6215   91.5089   11.8279 H       1  UNL1        0.1536
     20 C          63.6280   91.3028   12.6201 C.ar    1  UNL1        0.0600
     21 C          63.8475   91.0017   14.0731 C.ar    1  UNL1        0.0155
     22 C          65.1160   91.4361   14.7457 C.ar    1  UNL1        0.0028
     23 C          66.1649   92.1715   13.9653 C.ar    1  UNL1        0.0183
     24 C          65.9453   92.4726   12.5123 C.ar    1  UNL1        0.0141
     25 C          64.6769   92.0383   11.8397 C.ar    1  UNL1        0.0711
     26 CL         64.4573   92.3394   10.3868 Cl      1  UNL1       -0.0810
     27 C          67.4333   92.6059   14.6379 C.ar    1  UNL1        0.0805
     28 C          67.5311   93.4120   15.8991 C.ar    1  UNL1        0.1178
     29 N          68.9848   93.6147   16.2081 N.ar    1  UNL1       -0.2223
     30 C          69.7855   92.9338   15.1379 C.ar    1  UNL1        0.1786
     31 N          68.8266   92.3103   14.1675 N.ar    1  UNL1       -0.3070
     32 C          69.1961   91.5286   12.9418 C.3     1  UNL1        0.1320
     33 O          64.0906   86.5878   14.5256 O.3     1  UNL1       -0.4397
     34 C          63.5071   86.7284   15.9003 C.3     1  UNL1        0.1380
     35 C          63.6399   88.2194   15.8042 C.3     1  UNL1        0.0437
     36 C          63.3742   85.2373   15.9964 C.3     1  UNL1        0.0437
     37 C          62.9235   86.8689   17.2750 C.3     1  UNL1        0.0437
@<TRIPOS>BOND
     1    12    13    1
     2    13    14   ar
     3    14    15   ar
     4    15     1    1
     5     1     2   ar
     6     2     3   ar
     7     3     4   ar
     8     4     5   ar
     9     5     6   ar
    10     6    18    1
    11    18    20    1
    12    20    21   ar
    13    21    22   ar
    14    22    23   ar
    15    23    27    1
    16    27    28   ar
    17    28    29   ar
    18    29    30   ar
    19    30    31   ar
    20    31    32    1
    21    23    24   ar
    22    24    25   ar
    23    25    26    1
    24     6     7   ar
    25     7     8   ar
    26     8     9   ar
    27     9    10   am
    28    10    11    2
    29    10    33    1
    30    33    34    1
    31    34    35    1
    32    34    36    1
    33    34    37    1
    34    15    16   ar
    35    16    17   ar
    36    17    13   ar
    37     9     1   ar
    38     8     3   ar
    39    25    20   ar
    40    31    27   ar
    41    18    19    1
@<TRIPOS>MOLECULE
*****
 37 41 0 0 0
SMALL
GASTEIGER

@<TRIPOS>ATOM
      1 C          62.7929   84.3144   11.9530 C.ar    1  UNL1        0.0728
      2 C          62.2719   85.1670   10.8343 C.ar    1  UNL1        0.0208
      3 C          62.4790   86.6040   11.2114 C.ar    1  UNL1        0.0370
      4 C          62.1605   87.8847   10.4985 C.ar    1  UNL1        0.1018
      5 N          62.4910   89.2009   11.1374 N.ar    1  UNL1       -0.2290
      6 C          63.1400   89.2364   12.4893 C.ar    1  UNL1        0.1337
      7 C          63.4585   87.9557   13.2022 C.ar    1  UNL1        0.0521
      8 C          63.1280   86.6395   12.5632 C.ar    1  UNL1        0.0740
      9 N          63.3220   85.2244   13.0216 N.ar    1  UNL1       -0.2441
     10 C          63.9371   84.7949   14.3205 C.2     1  UNL1        0.4210
     11 O          64.0653   83.3356   14.6434 O.2     1  UNL1       -0.2227
     12 C          61.9601   79.3387   13.5119 C.3     1  UNL1        0.1538
     13 N          62.4032   80.5279   12.7123 N.ar    1  UNL1       -0.2473
     14 C          62.1798   81.9664   13.0739 C.ar    1  UNL1        0.0981
     15 C          62.7860   82.8150   11.9957 C.ar    1  UNL1        0.0559
     16 C          63.3841   81.9009   10.9678 C.ar    1  UNL1        0.1231
     17 N          63.1475   80.4874   11.4106 N.ar    1  UNL1       -0.1675
     18 N          63.4705   90.5527   13.1282 N.pl3   1  UNL1       -0.2972
     19 H          63.1832   90.7376   14.0516 H       1  UNL1        0.1536
     20 C          64.2386   91.5873   12.3604 C.ar    1  UNL1        0.0600
     21 C          63.8772   91.8854   10.9354 C.ar    1  UNL1        0.0155
     22 C          64.6454   92.9200   10.1675 C.ar    1  UNL1        0.0028
     23 C          65.7748   93.6565   10.8247 C.ar    1  UNL1        0.0183
     24 C          66.1362   93.3583   12.2496 C.ar    1  UNL1        0.0141
     25 C          65.3681   92.3238   13.0175 C.ar    1  UNL1        0.0711
     26 CL         65.7295   92.0257   14.4424 Cl      1  UNL1       -0.0810
     27 C          66.5430   94.6910   10.0568 C.ar    1  UNL1        0.0805
     28 C          67.4118   94.4366    8.8608 C.ar    1  UNL1        0.1178
     29 N          67.9829   95.7500    8.4150 N.ar    1  UNL1       -0.2223
     30 C          67.4670   96.8162    9.3354 C.ar    1  UNL1        0.1786
     31 N          66.5771   96.1617   10.3501 N.ar    1  UNL1       -0.3070
     32 C          65.8491   96.8560   11.4627 C.3     1  UNL1        0.1320
     33 O          64.4240   85.8245   15.2965 O.3     1  UNL1       -0.4397
     34 C          63.5167   86.3130   16.3866 C.3     1  UNL1        0.1380
     35 C          63.1430   84.8968   16.7102 C.3     1  UNL1        0.0437
     36 C          63.8904   87.7292   16.0630 C.3     1  UNL1        0.0437
     37 C          62.6094   86.8014   17.4766 C.3     1  UNL1        0.0437
@<TRIPOS>BOND
     1    12    13    1
     2    13    14   ar
     3    14    15   ar
     4    15     1    1
     5     1     2   ar
     6     2     3   ar
     7     3     4   ar
     8     4     5   ar
     9     5     6   ar
    10     6    18    1
    11    18    20    1
    12    20    21   ar
    13    21    22   ar
    14    22    23   ar
    15    23    27    1
    16    27    28   ar
    17    28    29   ar
    18    29    30   ar
    19    30    31   ar
    20    31    32    1
    21    23    24   ar
    22    24    25   ar
    23    25    26    1
    24     6     7   ar
    25     7     8   ar
    26     8     9   ar
    27     9    10   am
    28    10    11    2
    29    10    33    1
    30    33    34    1
    31    34    35    1
    32    34    36    1
    33    34    37    1
    34    15    16   ar
    35    16    17   ar
    36    17    13   ar
    37     9     1   ar
    38     8     3   ar
    39    25    20   ar
    40    31    27   ar
    41    18    19    1
@<TRIPOS>MOLECULE
*****
 37 41 0 0 0
SMALL
GASTEIGER

@<TRIPOS>ATOM
      1 C          65.7724   93.2961   12.0936 C.ar    1  UNL1        0.0728
      2 C          66.2772   93.6569   13.4592 C.ar    1  UNL1        0.0208
      3 C          65.6863   92.6903   14.4423 C.ar    1  UNL1        0.0370
      4 C          65.8280   92.5588   15.9297 C.ar    1  UNL1        0.1018
      5 N          65.0997   91.4692   16.6591 N.ar    1  UNL1       -0.2290
      6 C          64.2295   90.5109   15.9011 C.ar    1  UNL1        0.1337
      7 C          64.0877   90.6424   14.4136 C.ar    1  UNL1        0.0521
      8 C          64.8161   91.7321   13.6842 C.ar    1  UNL1        0.0740
      9 N          64.8693   92.1065   12.2327 N.ar    1  UNL1       -0.2441
     10 C          64.1464   91.4130   11.1162 C.2     1  UNL1        0.4210
     11 O          64.2967   91.9035    9.7065 O.2     1  UNL1       -0.2227
     12 C          65.8656   96.8533    8.1925 C.3     1  UNL1        0.1538
     13 N          66.1539   95.6362    9.0205 N.ar    1  UNL1       -0.2473
     14 C          65.5362   95.3056   10.3468 C.ar    1  UNL1        0.0981
     15 C          66.1110   94.0011   10.8137 C.ar    1  UNL1        0.0559
     16 C          67.0840   93.5255    9.7758 C.ar    1  UNL1        0.1231
     17 N          67.1105   94.5360    8.6676 N.ar    1  UNL1       -0.1675
     18 N          63.5011   89.4212   16.6305 N.pl3   1  UNL1       -0.2972
     19 H          63.0285   89.6219   17.4706 H       1  UNL1        0.1536
     20 C          63.4928   88.0259   16.0801 C.ar    1  UNL1        0.0600
     21 C          63.9597   87.7701   14.6778 C.ar    1  UNL1        0.0155
     22 C          63.9513   86.3746   14.1274 C.ar    1  UNL1        0.0028
     23 C          63.4761   85.2352   14.9793 C.ar    1  UNL1        0.0183
     24 C          63.0091   85.4911   16.3816 C.ar    1  UNL1        0.0141
     25 C          63.0175   86.8864   16.9320 C.ar    1  UNL1        0.0711
     26 CL         62.5505   87.1423   18.3343 Cl      1  UNL1       -0.0810
     27 C          63.4677   83.8399   14.4289 C.ar    1  UNL1        0.0805
     28 C          63.8498   82.5957   15.1745 C.ar    1  UNL1        0.1178
     29 N          63.6940   81.4307   14.2427 N.ar    1  UNL1       -0.2223
     30 C          63.2158   81.9548   12.9211 C.ar    1  UNL1        0.1786
     31 N          63.0759   83.4438   13.0362 N.ar    1  UNL1       -0.3070
     32 C          62.6236   84.3735   11.9494 C.3     1  UNL1        0.1320
     33 O          63.2731   90.2293   11.4092 O.3     1  UNL1       -0.4397
     34 C          62.0208   90.0059   10.6143 C.3     1  UNL1        0.1380
     35 C          61.4068   91.2233   11.2395 C.3     1  UNL1        0.0437
     36 C          62.6349   88.7884    9.9891 C.3     1  UNL1        0.0437
     37 C          60.7686   89.7825    9.8194 C.3     1  UNL1        0.0437
@<TRIPOS>BOND
     1    12    13    1
     2    13    14   ar
     3    14    15   ar
     4    15     1    1
     5     1     2   ar
     6     2     3   ar
     7     3     4   ar
     8     4     5   ar
     9     5     6   ar
    10     6    18    1
    11    18    20    1
    12    20    21   ar
    13    21    22   ar
    14    22    23   ar
    15    23    27    1
    16    27    28   ar
    17    28    29   ar
    18    29    30   ar
    19    30    31   ar
    20    31    32    1
    21    23    24   ar
    22    24    25   ar
    23    25    26    1
    24     6     7   ar
    25     7     8   ar
    26     8     9   ar
    27     9    10   am
    28    10    11    2
    29    10    33    1
    30    33    34    1
    31    34    35    1
    32    34    36    1
    33    34    37    1
    34    15    16   ar
    35    16    17   ar
    36    17    13   ar
    37     9     1   ar
    38     8     3   ar
    39    25    20   ar
    40    31    27   ar
    41    18    19    1
@<TRIPOS>MOLECULE
*****
 37 41 0 0 0
SMALL
GASTEIGER

@<TRIPOS>ATOM
      1 C          62.0052   85.7306   10.2875 C.ar    1  UNL1        0.0728
      2 C          61.2703   85.1926    9.0956 C.ar    1  UNL1        0.0208
      3 C          60.5937   86.3426    8.4103 C.ar    1  UNL1        0.0370
      4 C          59.7301   86.4141    7.1860 C.ar    1  UNL1        0.1018
      5 N          59.1833   87.7343    6.7299 N.ar    1  UNL1       -0.2290
      6 C          59.5001   88.9830    7.4982 C.ar    1  UNL1        0.1337
      7 C          60.3637   88.9116    8.7225 C.ar    1  UNL1        0.0521
      8 C          60.9105   87.5914    9.1786 C.ar    1  UNL1        0.0740
      9 N          61.7829   87.2131   10.3387 N.ar    1  UNL1       -0.2441
     10 C          62.3358   88.1525   11.3692 C.2     1  UNL1        0.4210
     11 O          63.1982   87.6262   12.4780 O.2     1  UNL1       -0.2227
     12 C          63.8229   83.6067   14.7670 C.3     1  UNL1        0.1538
     13 N          63.6551   83.9508   13.3167 N.ar    1  UNL1       -0.2473
     14 C          62.6225   84.8758   12.7438 C.ar    1  UNL1        0.0981
     15 C          62.8196   84.9271   11.2577 C.ar    1  UNL1        0.0559
     16 C          63.9740   84.0338   10.9121 C.ar    1  UNL1        0.1231
     17 N          64.4904   83.4304   12.1847 N.ar    1  UNL1       -0.1675
     18 N          58.9532   90.3033    7.0421 N.pl3   1  UNL1       -0.2972
     19 H          58.2703   90.7655    7.5799 H       1  UNL1        0.1536
     20 C          59.4468   90.9192    5.7666 C.ar    1  UNL1        0.0600
     21 C          60.9084   90.8809    5.4317 C.ar    1  UNL1        0.0155
     22 C          61.4020   91.4969    4.1561 C.ar    1  UNL1        0.0028
     23 C          60.4339   92.1511    3.2155 C.ar    1  UNL1        0.0183
     24 C          58.9723   92.1894    3.5504 C.ar    1  UNL1        0.0141
     25 C          58.4787   91.5734    4.8259 C.ar    1  UNL1        0.0711
     26 CL         57.0171   91.6117    5.1608 Cl      1  UNL1       -0.0810
     27 C          60.9275   92.7670    1.9400 C.ar    1  UNL1        0.0805
     28 C          60.0738   93.3682    0.8631 C.ar    1  UNL1        0.1178
     29 N          60.9801   93.8627   -0.2250 N.ar    1  UNL1       -0.2223
     30 C          62.3941   93.5671    0.1794 C.ar    1  UNL1        0.1786
     31 N          62.3615   92.8900    1.5174 N.ar    1  UNL1       -0.3070
     32 C          63.5537   92.4186    2.2962 C.3     1  UNL1        0.1320
     33 O          62.0263   89.6180   11.2910 O.3     1  UNL1       -0.4397
     34 C          63.1240   90.6264   11.4593 C.3     1  UNL1        0.1380
     35 C          63.1315   90.8653    9.9784 C.3     1  UNL1        0.0437
     36 C          63.1165   90.3875   12.9401 C.3     1  UNL1        0.0437
     37 C          64.2217   91.6348   11.6275 C.3     1  UNL1        0.0437
@<TRIPOS>BOND
     1    12    13    1
     2    13    14   ar
     3    14    15   ar
     4    15     1    1
     5     1     2   ar
     6     2     3   ar
     7     3     4   ar
     8     4     5   ar
     9     5     6   ar
    10     6    18    1
    11    18    20    1
    12    20    21   ar
    13    21    22   ar
    14    22    23   ar
    15    23    27    1
    16    27    28   ar
    17    28    29   ar
    18    29    30   ar
    19    30    31   ar
    20    31    32    1
    21    23    24   ar
    22    24    25   ar
    23    25    26    1
    24     6     7   ar
    25     7     8   ar
    26     8     9   ar
    27     9    10   am
    28    10    11    2
    29    10    33    1
    30    33    34    1
    31    34    35    1
    32    34    36    1
    33    34    37    1
    34    15    16   ar
    35    16    17   ar
    36    17    13   ar
    37     9     1   ar
    38     8     3   ar
    39    25    20   ar
    40    31    27   ar
    41    18    19    1
