@<TRIPOS>MOLECULE
*****
 31 33 0 0 0
SMALL
GASTEIGER

@<TRIPOS>ATOM
      1 N          64.4726   81.5052   13.0900 N.pl3   1  UNL1       -0.3288
      2 C          63.9726   82.5727   12.1624 C.ar    1  UNL1        0.1948
      3 N          64.2163   82.6409   10.6839 N.ar    1  UNL1       -0.2139
      4 C          63.5355   83.8698   10.1581 C.ar    1  UNL1        0.0999
      5 C          63.4347   84.4486    8.7779 C.ar    1  UNL1        0.0206
      6 C          62.6696   85.7187    8.5514 C.ar    1  UNL1        0.0055
      7 C          62.0052   86.4100    9.7050 C.ar    1  UNL1        0.0730
      8 C          62.1060   85.8312   11.0851 C.ar    1  UNL1        0.0226
      9 C          62.8711   84.5611   11.3116 C.ar    1  UNL1        0.0799
     10 N          63.1413   83.7594   12.5503 N.ar    1  UNL1       -0.2971
     11 H          65.0143   80.7619   12.7387 H       1  UNL1        0.1451
     12 H          64.2590   81.5478   14.0501 H       1  UNL1        0.1451
     13 C          61.2401   87.6801    9.4784 C.3     1  UNL1        0.4186
     14 F          60.4749   88.9502    9.2517 F       1  UNL1       -0.1659
     15 F          62.5012   88.4720    9.6584 F       1  UNL1       -0.1659
     16 F          59.9790   86.8882    9.2983 F       1  UNL1       -0.1659
     17 C          62.6639   84.0870   13.9341 C.3     1  UNL1        0.1424
     18 C          63.6230   84.6368   14.9478 C.3     1  UNL1        0.1561
     19 O          64.5017   83.7067   15.7308 O.3     1  UNL1       -0.3780
     20 H          65.0570   84.2207   16.3376 H       1  UNL1        0.2109
     21 C          63.7035   86.1167   15.1788 C.ar    1  UNL1        0.0167
     22 C          64.3000   87.0081   14.1302 C.ar    1  UNL1       -0.0011
     23 C          64.3805   88.4881   14.3612 C.ar    1  UNL1        0.0037
     24 C          63.8646   89.0766   15.6408 C.ar    1  UNL1        0.0722
     25 C          63.2682   88.1852   16.6895 C.ar    1  UNL1        0.0150
     26 C          63.1876   86.7053   16.4585 C.ar    1  UNL1        0.0559
     27 CL         62.5912   85.8138   17.5071 Cl      1  UNL1       -0.0825
     28 C          63.9451   90.5565   15.8719 C.3     1  UNL1        0.4186
     29 F          64.0256   92.0364   16.1031 F       1  UNL1       -0.1659
     30 F          63.1696   90.3996   17.1463 F       1  UNL1       -0.1659
     31 F          64.7206   90.7133   14.5976 F       1  UNL1       -0.1659
@<TRIPOS>BOND
     1     1     2    1
     2     2     3   ar
     3     3     4   ar
     4     4     5   ar
     5     5     6   ar
     6     6     7   ar
     7     7    13    1
     8    13    14    1
     9    13    15    1
    10    13    16    1
    11     7     8   ar
    12     8     9   ar
    13     9    10   ar
    14    10    17    1
    15    17    18    1
    16    18    19    1
    17    18    21    1
    18    21    22   ar
    19    22    23   ar
    20    23    24   ar
    21    24    28    1
    22    28    29    1
    23    28    30    1
    24    28    31    1
    25    24    25   ar
    26    25    26   ar
    27    26    27    1
    28    10     2   ar
    29    26    21   ar
    30     9     4   ar
    31     1    11    1
    32     1    12    1
    33    19    20    1
@<TRIPOS>MOLECULE
*****
 31 33 0 0 0
SMALL
GASTEIGER

@<TRIPOS>ATOM
      1 N          62.9554   87.3699   17.8380 N.pl3   1  UNL1       -0.3288
      2 C          63.0081   86.3751   16.7166 C.ar    1  UNL1        0.1948
      3 N          62.3654   85.0198   16.7094 N.ar    1  UNL1       -0.2139
      4 C          62.6729   84.3679   15.3939 C.ar    1  UNL1        0.0999
      5 C          62.3022   83.0301   14.8257 C.ar    1  UNL1        0.0206
      6 C          62.7643   82.6448   13.4517 C.ar    1  UNL1        0.0055
      7 C          63.5971   83.5972   12.6459 C.ar    1  UNL1        0.0730
      8 C          63.9678   84.9350   13.2141 C.ar    1  UNL1        0.0226
      9 C          63.5057   85.3203   14.5881 C.ar    1  UNL1        0.0799
     10 N          63.7129   86.5608   15.4056 N.ar    1  UNL1       -0.2971
     11 H          62.4647   87.1550   18.6640 H       1  UNL1        0.1451
     12 H          63.4114   88.2378   17.7480 H       1  UNL1        0.1451
     13 C          64.0592   83.2118   11.2718 C.3     1  UNL1        0.4186
     14 F          64.5213   82.8263    9.8978 F       1  UNL1       -0.1659
     15 F          63.2080   84.2964   10.6813 F       1  UNL1       -0.1659
     16 F          64.9105   82.1271   11.8624 F       1  UNL1       -0.1659
     17 C          64.4886   87.7740   14.9857 C.3     1  UNL1        0.1424
     18 C          63.8079   89.1080   14.9031 C.3     1  UNL1        0.1561
     19 O          62.5310   89.3462   15.6534 O.3     1  UNL1       -0.3780
     20 H          62.2260   90.2529   15.4928 H       1  UNL1        0.2109
     21 C          64.4039   90.2039   14.0701 C.ar    1  UNL1        0.0167
     22 C          65.5947   90.9650   14.5728 C.ar    1  UNL1       -0.0011
     23 C          66.1907   92.0609   13.7399 C.ar    1  UNL1        0.0037
     24 C          65.5958   92.3957   12.4042 C.ar    1  UNL1        0.0722
     25 C          64.4050   91.6347   11.9015 C.ar    1  UNL1        0.0150
     26 C          63.8090   90.5388   12.7344 C.ar    1  UNL1        0.0559
     27 CL         62.6182   89.7777   12.2317 Cl      1  UNL1       -0.0825
     28 C          66.1918   93.4916   11.5712 C.3     1  UNL1        0.4186
     29 F          66.7877   94.5875   10.7381 F       1  UNL1       -0.1659
     30 F          66.1474   92.5996   10.3661 F       1  UNL1       -0.1659
     31 F          66.2361   94.3836   12.7763 F       1  UNL1       -0.1659
@<TRIPOS>BOND
     1     1     2    1
     2     2     3   ar
     3     3     4   ar
     4     4     5   ar
     5     5     6   ar
     6     6     7   ar
     7     7    13    1
     8    13    14    1
     9    13    15    1
    10    13    16    1
    11     7     8   ar
    12     8     9   ar
    13     9    10   ar
    14    10    17    1
    15    17    18    1
    16    18    19    1
    17    18    21    1
    18    21    22   ar
    19    22    23   ar
    20    23    24   ar
    21    24    28    1
    22    28    29    1
    23    28    30    1
    24    28    31    1
    25    24    25   ar
    26    25    26   ar
    27    26    27    1
    28    10     2   ar
    29    26    21   ar
    30     9     4   ar
    31     1    11    1
    32     1    12    1
    33    19    20    1
@<TRIPOS>MOLECULE
*****
 31 33 0 0 0
SMALL
GASTEIGER

@<TRIPOS>ATOM
      1 N          62.2826   89.8545   14.6110 N.pl3   1  UNL1       -0.3288
      2 C          63.4044   90.5158   13.8665 C.ar    1  UNL1        0.1948
      3 N          64.7817   90.7791   14.3991 N.ar    1  UNL1       -0.2139
      4 C          65.5743   91.4560   13.3204 C.ar    1  UNL1        0.0999
      5 C          66.9895   91.9511   13.2753 C.ar    1  UNL1        0.0206
      6 C          67.5172   92.6013   12.0308 C.ar    1  UNL1        0.0055
      7 C          66.6298   92.7563   10.8315 C.ar    1  UNL1        0.0730
      8 C          65.2146   92.2611   10.8766 C.ar    1  UNL1        0.0226
      9 C          64.6869   91.6109   12.1210 C.ar    1  UNL1        0.0799
     10 N          63.3458   91.0299   12.4585 N.ar    1  UNL1       -0.2971
     11 H          62.4189   89.5494   15.5371 H       1  UNL1        0.1451
     12 H          61.4101   89.7256   14.1736 H       1  UNL1        0.1451
     13 C          67.1576   93.4065    9.5870 C.3     1  UNL1        0.4186
     14 F          67.6854   94.0567    8.3425 F       1  UNL1       -0.1659
     15 F          66.3674   94.6430    9.8978 F       1  UNL1       -0.1659
     16 F          67.9478   92.1701    9.2762 F       1  UNL1       -0.1659
     17 C          62.1552   90.9729   11.5479 C.3     1  UNL1        0.1424
     18 C          61.1925   89.8267   11.6428 C.3     1  UNL1        0.1561
     19 O          60.2041   89.7686   12.7697 O.3     1  UNL1       -0.3780
     20 H          59.6612   88.9695   12.6827 H       1  UNL1        0.2109
     21 C          61.2181   88.7383   10.6109 C.ar    1  UNL1        0.0167
     22 C          60.3404   88.8337    9.3983 C.ar    1  UNL1       -0.0011
     23 C          60.3660   87.7453    8.3664 C.ar    1  UNL1        0.0037
     24 C          61.2692   86.5615    8.5472 C.ar    1  UNL1        0.0722
     25 C          62.1469   86.4661    9.7598 C.ar    1  UNL1        0.0150
     26 C          62.1214   87.5545   10.7917 C.ar    1  UNL1        0.0559
     27 CL         62.9991   87.4590   12.0044 Cl      1  UNL1       -0.0825
     28 C          61.2949   85.4730    7.5153 C.3     1  UNL1        0.4186
     29 F          61.3204   84.3846    6.4835 F       1  UNL1       -0.1659
     30 F          59.8049   85.5724    7.3736 F       1  UNL1       -0.1659
     31 F          62.7848   85.3737    7.6571 F       1  UNL1       -0.1659
@<TRIPOS>BOND
     1     1     2    1
     2     2     3   ar
     3     3     4   ar
     4     4     5   ar
     5     5     6   ar
     6     6     7   ar
     7     7    13    1
     8    13    14    1
     9    13    15    1
    10    13    16    1
    11     7     8   ar
    12     8     9   ar
    13     9    10   ar
    14    10    17    1
    15    17    18    1
    16    18    19    1
    17    18    21    1
    18    21    22   ar
    19    22    23   ar
    20    23    24   ar
    21    24    28    1
    22    28    29    1
    23    28    30    1
    24    28    31    1
    25    24    25   ar
    26    25    26   ar
    27    26    27    1
    28    10     2   ar
    29    26    21   ar
    30     9     4   ar
    31     1    11    1
    32     1    12    1
    33    19    20    1
@<TRIPOS>MOLECULE
*****
 31 33 0 0 0
SMALL
GASTEIGER

@<TRIPOS>ATOM
      1 N          62.9103   82.9784   15.7114 N.pl3   1  UNL1       -0.3288
      2 C          63.1177   84.4640   15.7013 C.ar    1  UNL1        0.1948
      3 N          62.7397   85.4145   16.7985 N.ar    1  UNL1       -0.2139
      4 C          63.1278   86.7978   16.3676 C.ar    1  UNL1        0.0999
      5 C          62.9984   88.1321   17.0406 C.ar    1  UNL1        0.0206
      6 C          63.4869   89.3708   16.3501 C.ar    1  UNL1        0.0055
      7 C          64.1047   89.2754   14.9866 C.ar    1  UNL1        0.0730
      8 C          64.2341   87.9411   14.3136 C.ar    1  UNL1        0.0226
      9 C          63.7457   86.7024   15.0041 C.ar    1  UNL1        0.0799
     10 N          63.7394   85.2600   14.5923 N.ar    1  UNL1       -0.2971
     11 H          62.4911   82.5452   16.4897 H       1  UNL1        0.1451
     12 H          63.1935   82.4367   14.9397 H       1  UNL1        0.1451
     13 C          64.5933   90.5142   14.2962 C.3     1  UNL1        0.4186
     14 F          65.0817   91.7530   13.6057 F       1  UNL1       -0.1659
     15 F          64.9757   91.1024   15.6220 F       1  UNL1       -0.1659
     16 F          64.2108   89.9260   12.9704 F       1  UNL1       -0.1659
     17 C          64.2630   84.7101   13.2987 C.3     1  UNL1        0.1424
     18 C          63.3195   84.0926   12.3096 C.3     1  UNL1        0.1561
     19 O          63.0807   82.6118   12.3245 O.3     1  UNL1       -0.3780
     20 H          62.4490   82.3791   11.6261 H       1  UNL1        0.2109
     21 C          62.6147   84.9558   11.3055 C.ar    1  UNL1        0.0167
     22 C          61.6327   85.9923   11.7654 C.ar    1  UNL1       -0.0011
     23 C          60.9279   86.8555   10.7613 C.ar    1  UNL1        0.0037
     24 C          61.2051   86.6823    9.2974 C.ar    1  UNL1        0.0722
     25 C          62.1871   85.6458    8.8375 C.ar    1  UNL1        0.0150
     26 C          62.8919   84.7826    9.8416 C.ar    1  UNL1        0.0559
     27 CL         63.8739   83.7462    9.3817 Cl      1  UNL1       -0.0825
     28 C          60.5004   87.5454    8.2932 C.3     1  UNL1        0.4186
     29 F          59.7956   88.4087    7.2891 F       1  UNL1       -0.1659
     30 F          60.6603   88.7300    9.1994 F       1  UNL1       -0.1659
     31 F          60.3405   86.3608    7.3872 F       1  UNL1       -0.1659
@<TRIPOS>BOND
     1     1     2    1
     2     2     3   ar
     3     3     4   ar
     4     4     5   ar
     5     5     6   ar
     6     6     7   ar
     7     7    13    1
     8    13    14    1
     9    13    15    1
    10    13    16    1
    11     7     8   ar
    12     8     9   ar
    13     9    10   ar
    14    10    17    1
    15    17    18    1
    16    18    19    1
    17    18    21    1
    18    21    22   ar
    19    22    23   ar
    20    23    24   ar
    21    24    28    1
    22    28    29    1
    23    28    30    1
    24    28    31    1
    25    24    25   ar
    26    25    26   ar
    27    26    27    1
    28    10     2   ar
    29    26    21   ar
    30     9     4   ar
    31     1    11    1
    32     1    12    1
    33    19    20    1
@<TRIPOS>MOLECULE
*****
 31 33 0 0 0
SMALL
GASTEIGER

@<TRIPOS>ATOM
      1 N          60.2070   89.7039    8.5259 N.pl3   1  UNL1       -0.3288
      2 C          60.8784   88.6732    9.3843 C.ar    1  UNL1        0.1948
      3 N          60.9453   87.2010    9.1049 N.ar    1  UNL1       -0.2139
      4 C          61.7089   86.5516   10.2208 C.ar    1  UNL1        0.0999
      5 C          62.0878   85.1235   10.4796 C.ar    1  UNL1        0.0206
      6 C          62.8717   84.7664   11.7076 C.ar    1  UNL1        0.0055
      7 C          63.2768   85.8373   12.6766 C.ar    1  UNL1        0.0730
      8 C          62.8980   87.2653   12.4177 C.ar    1  UNL1        0.0226
      9 C          62.1141   87.6225   11.1898 C.ar    1  UNL1        0.0799
     10 N          61.6007   88.9337   10.6728 N.ar    1  UNL1       -0.2971
     11 H          59.7565   89.4335    7.6934 H       1  UNL1        0.1451
     12 H          60.2170   90.6509    8.7950 H       1  UNL1        0.1451
     13 C          64.0608   85.4800   13.9046 C.3     1  UNL1        0.4186
     14 F          64.8448   85.1229   15.1325 F       1  UNL1       -0.1659
     15 F          63.8456   84.0235   13.6183 F       1  UNL1       -0.1659
     16 F          64.2760   86.9366   14.1909 F       1  UNL1       -0.1659
     17 C          61.7786   90.2707   11.3292 C.3     1  UNL1        0.1424
     18 C          63.0007   91.0911   11.0409 C.3     1  UNL1        0.1561
     19 O          63.1975   91.6911    9.6802 O.3     1  UNL1       -0.3780
     20 H          64.0310   92.1869    9.6629 H       1  UNL1        0.2109
     21 C          64.0262   91.3117   12.1132 C.ar    1  UNL1        0.0167
     22 C          63.9231   90.5707   13.4133 C.ar    1  UNL1       -0.0011
     23 C          64.9486   90.7913   14.4856 C.ar    1  UNL1        0.0037
     24 C          66.0771   91.7528   14.2578 C.ar    1  UNL1        0.0722
     25 C          66.1801   92.4938   12.9576 C.ar    1  UNL1        0.0150
     26 C          65.1547   92.2732   11.8854 C.ar    1  UNL1        0.0559
     27 CL         65.2577   93.0142   10.5852 Cl      1  UNL1       -0.0825
     28 C          67.1026   91.9735   15.3300 C.3     1  UNL1        0.4186
     29 F          68.1281   92.1941   16.4023 F       1  UNL1       -0.1659
     30 F          66.0245   92.4322   16.2666 F       1  UNL1       -0.1659
     31 F          68.1806   91.5147   14.3934 F       1  UNL1       -0.1659
@<TRIPOS>BOND
     1     1     2    1
     2     2     3   ar
     3     3     4   ar
     4     4     5   ar
     5     5     6   ar
     6     6     7   ar
     7     7    13    1
     8    13    14    1
     9    13    15    1
    10    13    16    1
    11     7     8   ar
    12     8     9   ar
    13     9    10   ar
    14    10    17    1
    15    17    18    1
    16    18    19    1
    17    18    21    1
    18    21    22   ar
    19    22    23   ar
    20    23    24   ar
    21    24    28    1
    22    28    29    1
    23    28    30    1
    24    28    31    1
    25    24    25   ar
    26    25    26   ar
    27    26    27    1
    28    10     2   ar
    29    26    21   ar
    30     9     4   ar
    31     1    11    1
    32     1    12    1
    33    19    20    1
@<TRIPOS>MOLECULE
*****
 31 33 0 0 0
SMALL
GASTEIGER

@<TRIPOS>ATOM
      1 N          65.0685   85.6351   15.3504 N.pl3   1  UNL1       -0.3288
      2 C          64.2281   85.9012   14.1368 C.ar    1  UNL1        0.1948
      3 N          63.5933   84.8636   13.2591 N.ar    1  UNL1       -0.2139
      4 C          62.8477   85.5727   12.1677 C.ar    1  UNL1        0.0999
      5 C          62.0329   85.0652   11.0151 C.ar    1  UNL1        0.0206
      6 C          61.3921   86.0337   10.0657 C.ar    1  UNL1        0.0055
      7 C          61.5661   87.5096   10.2689 C.ar    1  UNL1        0.0730
      8 C          62.3809   88.0171   11.4214 C.ar    1  UNL1        0.0226
      9 C          63.0217   87.0487   12.3708 C.ar    1  UNL1        0.0799
     10 N          63.8748   87.2517   13.5878 N.ar    1  UNL1       -0.2971
     11 H          65.2454   84.7088   15.6332 H       1  UNL1        0.1451
     12 H          65.4432   86.3867   15.8642 H       1  UNL1        0.1451
     13 C          60.9252   88.4781    9.3194 C.3     1  UNL1        0.4186
     14 F          60.2843   89.4465    8.3700 F       1  UNL1       -0.1659
     15 F          59.7799   87.5293    9.1246 F       1  UNL1       -0.1659
     16 F          62.0705   89.4269    9.5142 F       1  UNL1       -0.1659
     17 C          64.3000   88.5732   14.1560 C.3     1  UNL1        0.1424
     18 C          63.5629   89.8239   13.7788 C.3     1  UNL1        0.1561
     19 O          62.1149   89.9786   14.1387 O.3     1  UNL1       -0.3780
     20 H          61.7936   90.8380   13.8240 H       1  UNL1        0.2109
     21 C          64.2737   90.9200   13.0417 C.ar    1  UNL1        0.0167
     22 C          63.9561   91.1823   11.5993 C.ar    1  UNL1       -0.0011
     23 C          64.6669   92.2784   10.8622 C.ar    1  UNL1        0.0037
     24 C          65.6952   93.1122   11.5674 C.ar    1  UNL1        0.0722
     25 C          66.0127   92.8499   13.0097 C.ar    1  UNL1        0.0150
     26 C          65.3020   91.7538   13.7469 C.ar    1  UNL1        0.0559
     27 CL         65.6195   91.4915   15.1892 Cl      1  UNL1       -0.0825
     28 C          66.4060   94.2083   10.8303 C.3     1  UNL1        0.4186
     29 F          67.1169   95.3044   10.0931 F       1  UNL1       -0.1659
     30 F          66.6319   93.2827    9.6717 F       1  UNL1       -0.1659
     31 F          66.1801   95.1338   11.9888 F       1  UNL1       -0.1659
@<TRIPOS>BOND
     1     1     2    1
     2     2     3   ar
     3     3     4   ar
     4     4     5   ar
     5     5     6   ar
     6     6     7   ar
     7     7    13    1
     8    13    14    1
     9    13    15    1
    10    13    16    1
    11     7     8   ar
    12     8     9   ar
    13     9    10   ar
    14    10    17    1
    15    17    18    1
    16    18    19    1
    17    18    21    1
    18    21    22   ar
    19    22    23   ar
    20    23    24   ar
    21    24    28    1
    22    28    29    1
    23    28    30    1
    24    28    31    1
    25    24    25   ar
    26    25    26   ar
    27    26    27    1
    28    10     2   ar
    29    26    21   ar
    30     9     4   ar
    31     1    11    1
    32     1    12    1
    33    19    20    1
@<TRIPOS>MOLECULE
*****
 31 33 0 0 0
SMALL
GASTEIGER

@<TRIPOS>ATOM
      1 N          63.9248   88.0517   13.8094 N.pl3   1  UNL1       -0.3288
      2 C          63.0938   87.8476   12.5774 C.ar    1  UNL1        0.1948
      3 N          62.8073   86.5326   11.9150 N.ar    1  UNL1       -0.2139
      4 C          61.9399   86.7950   10.7197 C.ar    1  UNL1        0.0999
      5 C          61.3451   85.8797    9.6909 C.ar    1  UNL1        0.0206
      6 C          60.5007   86.4415    8.5858 C.ar    1  UNL1        0.0055
      7 C          60.2511   87.9186    8.5094 C.ar    1  UNL1        0.0730
      8 C          60.8459   88.8339    9.5382 C.ar    1  UNL1        0.0226
      9 C          61.6903   88.2721   10.6433 C.ar    1  UNL1        0.0799
     10 N          62.4035   88.9226   11.7914 N.ar    1  UNL1       -0.2971
     11 H          64.3394   87.2791   14.2571 H       1  UNL1        0.1451
     12 H          64.0556   88.9583   14.1703 H       1  UNL1        0.1451
     13 C          59.4066   88.4804    7.4043 C.3     1  UNL1        0.4186
     14 F          58.5623   89.0422    6.2991 F       1  UNL1       -0.1659
     15 F          58.6716   87.1768    7.3031 F       1  UNL1       -0.1659
     16 F          60.1417   89.7840    7.5054 F       1  UNL1       -0.1659
     17 C          62.4229   90.3905   12.0995 C.3     1  UNL1        0.1424
     18 C          63.5662   91.2404   11.6300 C.3     1  UNL1        0.1561
     19 O          63.5939   91.7471   10.2184 O.3     1  UNL1       -0.3780
     20 H          64.3951   92.2763   10.0805 H       1  UNL1        0.2109
     21 C          64.6819   91.5837   12.5720 C.ar    1  UNL1        0.0167
     22 C          64.6050   91.1644   14.0102 C.ar    1  UNL1       -0.0011
     23 C          65.7207   91.5077   14.9522 C.ar    1  UNL1        0.0037
     24 C          66.9133   92.2703   14.4561 C.ar    1  UNL1        0.0722
     25 C          66.9902   92.6896   13.0180 C.ar    1  UNL1        0.0150
     26 C          65.8745   92.3463   12.0759 C.ar    1  UNL1        0.0559
     27 CL         65.9514   92.7656   10.6378 Cl      1  UNL1       -0.0825
     28 C          68.0290   92.6136   15.3981 C.3     1  UNL1        0.4186
     29 F          69.1448   92.9569   16.3399 F       1  UNL1       -0.1659
     30 F          69.0299   92.3128   14.3220 F       1  UNL1       -0.1659
     31 F          67.0281   92.9144   16.4740 F       1  UNL1       -0.1659
@<TRIPOS>BOND
     1     1     2    1
     2     2     3   ar
     3     3     4   ar
     4     4     5   ar
     5     5     6   ar
     6     6     7   ar
     7     7    13    1
     8    13    14    1
     9    13    15    1
    10    13    16    1
    11     7     8   ar
    12     8     9   ar
    13     9    10   ar
    14    10    17    1
    15    17    18    1
    16    18    19    1
    17    18    21    1
    18    21    22   ar
    19    22    23   ar
    20    23    24   ar
    21    24    28    1
    22    28    29    1
    23    28    30    1
    24    28    31    1
    25    24    25   ar
    26    25    26   ar
    27    26    27    1
    28    10     2   ar
    29    26    21   ar
    30     9     4   ar
    31     1    11    1
    32     1    12    1
    33    19    20    1
@<TRIPOS>MOLECULE
*****
 31 33 0 0 0
SMALL
GASTEIGER

@<TRIPOS>ATOM
      1 N          62.9303   86.6952   12.2796 N.pl3   1  UNL1       -0.3288
      2 C          62.0676   87.0323   11.0997 C.ar    1  UNL1        0.1948
      3 N          61.1483   86.0894   10.3815 N.ar    1  UNL1       -0.2139
      4 C          60.4853   86.8458    9.2688 C.ar    1  UNL1        0.0999
      5 C          59.4835   86.4325    8.2318 C.ar    1  UNL1        0.0206
      6 C          58.9911   87.4297    7.2252 C.ar    1  UNL1        0.0055
      7 C          59.5006   88.8402    7.2557 C.ar    1  UNL1        0.0730
      8 C          60.5025   89.2535    8.2927 C.ar    1  UNL1        0.0226
      9 C          60.9948   88.2563    9.2992 C.ar    1  UNL1        0.0799
     10 N          61.9727   88.3715   10.4308 N.ar    1  UNL1       -0.2971
     11 H          62.9238   85.7829   12.6495 H       1  UNL1        0.1451
     12 H          63.5030   87.3863   12.6841 H       1  UNL1        0.1451
     13 C          59.0082   89.8374    6.2490 C.3     1  UNL1        0.4186
     14 F          58.5159   90.8345    5.2424 F       1  UNL1       -0.1659
     15 F          57.5936   89.5506    6.6569 F       1  UNL1       -0.1659
     16 F          60.4229   90.1241    5.8412 F       1  UNL1       -0.1659
     17 C          62.7239   89.6088   10.8243 C.3     1  UNL1        0.1424
     18 C          62.6895   90.0869   12.2456 C.3     1  UNL1        0.1561
     19 O          61.4590   89.8780   13.0777 O.3     1  UNL1       -0.3780
     20 H          61.6027   90.2431   13.9648 H       1  UNL1        0.2109
     21 C          63.8856   90.7740   12.8350 C.ar    1  UNL1        0.0167
     22 C          64.4468   91.9993   12.1765 C.ar    1  UNL1       -0.0011
     23 C          65.6428   92.6864   12.7659 C.ar    1  UNL1        0.0037
     24 C          66.2777   92.1481   14.0138 C.ar    1  UNL1        0.0722
     25 C          65.7165   90.9228   14.6723 C.ar    1  UNL1        0.0150
     26 C          64.5204   90.2357   14.0829 C.ar    1  UNL1        0.0559
     27 CL         63.9592   89.0104   14.7414 Cl      1  UNL1       -0.0825
     28 C          67.4738   92.8352   14.6033 C.3     1  UNL1        0.4186
     29 F          68.6698   93.5222   15.1927 F       1  UNL1       -0.1659
     30 F          66.8913   94.1669   14.2329 F       1  UNL1       -0.1659
     31 F          68.0562   91.5034   14.9736 F       1  UNL1       -0.1659
@<TRIPOS>BOND
     1     1     2    1
     2     2     3   ar
     3     3     4   ar
     4     4     5   ar
     5     5     6   ar
     6     6     7   ar
     7     7    13    1
     8    13    14    1
     9    13    15    1
    10    13    16    1
    11     7     8   ar
    12     8     9   ar
    13     9    10   ar
    14    10    17    1
    15    17    18    1
    16    18    19    1
    17    18    21    1
    18    21    22   ar
    19    22    23   ar
    20    23    24   ar
    21    24    28    1
    22    28    29    1
    23    28    30    1
    24    28    31    1
    25    24    25   ar
    26    25    26   ar
    27    26    27    1
    28    10     2   ar
    29    26    21   ar
    30     9     4   ar
    31     1    11    1
    32     1    12    1
    33    19    20    1
@<TRIPOS>MOLECULE
*****
 31 33 0 0 0
SMALL
GASTEIGER

@<TRIPOS>ATOM
      1 N          62.7519   85.1970   17.1461 N.pl3   1  UNL1       -0.3288
      2 C          63.1247   86.5499   16.6162 C.ar    1  UNL1        0.1948
      3 N          62.8629   87.8638   17.2908 N.ar    1  UNL1       -0.2139
      4 C          63.4012   88.9523   16.4103 C.ar    1  UNL1        0.0999
      5 C          63.4268   90.4445   16.5608 C.ar    1  UNL1        0.0206
      6 C          64.0469   91.2955   15.4926 C.ar    1  UNL1        0.0055
      7 C          64.6414   90.6544   14.2738 C.ar    1  UNL1        0.0730
      8 C          64.6158   89.1622   14.1232 C.ar    1  UNL1        0.0226
      9 C          63.9957   88.3112   15.1915 C.ar    1  UNL1        0.0799
     10 N          63.8248   86.8264   15.3188 N.ar    1  UNL1       -0.2971
     11 H          62.2917   85.1174   18.0127 H       1  UNL1        0.1451
     12 H          62.9675   84.3886   16.6272 H       1  UNL1        0.1451
     13 C          65.2615   91.5055   13.2055 C.3     1  UNL1        0.4186
     14 F          65.8815   92.3565   12.1372 F       1  UNL1       -0.1659
     15 F          66.5968   91.3743   13.8760 F       1  UNL1       -0.1659
     16 F          63.9261   91.6367   12.5350 F       1  UNL1       -0.1659
     17 C          64.2750   85.7986   14.3233 C.3     1  UNL1        0.1424
     18 C          63.4434   85.5176   13.1071 C.3     1  UNL1        0.1561
     19 O          62.7679   86.6448   12.3836 O.3     1  UNL1       -0.3780
     20 H          62.2746   86.2932   11.6260 H       1  UNL1        0.2109
     21 C          63.2871   84.1096   12.6141 C.ar    1  UNL1        0.0167
     22 C          63.8419   83.7172   11.2769 C.ar    1  UNL1       -0.0011
     23 C          63.6857   82.3091   10.7840 C.ar    1  UNL1        0.0037
     24 C          62.9746   81.2935   11.6282 C.ar    1  UNL1        0.0722
     25 C          62.4198   81.6859   12.9654 C.ar    1  UNL1        0.0150
     26 C          62.5760   83.0940   13.4584 C.ar    1  UNL1        0.0559
     27 CL         62.0212   83.4864   14.7956 Cl      1  UNL1       -0.0825
     28 C          62.8182   79.8854   11.1353 C.3     1  UNL1        0.4186
     29 F          62.6619   78.4774   10.6424 F       1  UNL1       -0.1659
     30 F          63.1577   80.3345    9.7450 F       1  UNL1       -0.1659
     31 F          62.4788   79.4365   12.5257 F       1  UNL1       -0.1659
@<TRIPOS>BOND
     1     1     2    1
     2     2     3   ar
     3     3     4   ar
     4     4     5   ar
     5     5     6   ar
     6     6     7   ar
     7     7    13    1
     8    13    14    1
     9    13    15    1
    10    13    16    1
    11     7     8   ar
    12     8     9   ar
    13     9    10   ar
    14    10    17    1
    15    17    18    1
    16    18    19    1
    17    18    21    1
    18    21    22   ar
    19    22    23   ar
    20    23    24   ar
    21    24    28    1
    22    28    29    1
    23    28    30    1
    24    28    31    1
    25    24    25   ar
    26    25    26   ar
    27    26    27    1
    28    10     2   ar
    29    26    21   ar
    30     9     4   ar
    31     1    11    1
    32     1    12    1
    33    19    20    1
