@<TRIPOS>MOLECULE
*****
 35 38 0 0 0
SMALL
GASTEIGER

@<TRIPOS>ATOM
      1 C          62.3464   88.4718   10.9485 C.ar    1  UNL1        0.0337
      2 C          61.5339   88.9441    9.7794 C.ar    1  UNL1        0.1336
      3 O          61.4794   90.4055    9.4454 O.3     1  UNL1       -0.5055
      4 C          60.7760   87.9551    8.9443 C.ar    1  UNL1        0.0366
      5 C          60.8305   86.4938    9.2782 C.ar    1  UNL1        0.0031
      6 C          61.6430   86.0214   10.4473 C.ar    1  UNL1        0.0002
      7 C          61.6975   84.5601   10.7812 C.ar    1  UNL1        0.0000
      8 C          62.5100   84.0877   11.9503 C.ar    1  UNL1        0.0001
      9 C          63.2679   85.0767   12.7854 C.ar    1  UNL1        0.0000
     10 C          63.2134   86.5380   12.4515 C.ar    1  UNL1        0.0001
     11 C          62.4010   87.0104   11.2825 C.ar    1  UNL1        0.0029
     12 H          61.9528   91.0233    9.9671 H       1  UNL1        0.2922
     13 C          62.5645   82.6264   12.2843 C.ar    1  UNL1        0.0030
     14 C          62.4513   82.1785   13.7114 C.ar    1  UNL1        0.0002
     15 C          62.5058   80.7172   14.0454 C.ar    1  UNL1        0.0031
     16 C          62.6736   79.7037   12.9523 C.ar    1  UNL1        0.0366
     17 C          62.7869   80.1516   11.5252 C.ar    1  UNL1        0.1337
     18 O          62.9547   79.1382   10.4321 O.3     1  UNL1       -0.5055
     19 C          62.7323   81.6130   11.1912 C.ar    1  UNL1        0.0366
     20 H          62.9887   78.2254   10.6407 H       1  UNL1        0.2922
     21 C          64.6202   91.4387   13.4539 C.ar    1  UNL1        0.0503
     22 C          64.1968   91.8016   12.0613 C.ar    1  UNL1        0.0147
     23 C          63.4389   90.8126   11.2262 C.ar    1  UNL1        0.0014
     24 C          63.1043   89.4607   11.7836 C.ar    1  UNL1        0.0030
     25 C          63.5277   89.0979   13.1761 C.ar    1  UNL1        0.0014
     26 C          64.2856   90.0869   14.0112 C.ar    1  UNL1        0.0147
     27 C          66.4636   93.2569   13.6691 C.2     1  UNL1        0.2265
     28 O          66.7910   93.0971   12.2140 O.2     1  UNL1       -0.2748
     29 N          65.3781   92.4276   14.2890 N.am    1  UNL1       -0.2839
     30 H          65.1632   92.5325   15.2441 H       1  UNL1        0.1549
     31 C          67.2215   94.2458   14.5042 C.3     1  UNL1        0.0913
     32 C          68.0107   93.7768   15.6904 C.3     1  UNL1        0.0513
     33 O          69.6595   92.4765   14.1604 O.co2   1  UNL1       -0.5492
     34 C          69.0765   92.7354   15.5180 C.2     1  UNL1        0.0508
     35 O          69.5592   91.9530   16.7032 O.co2   1  UNL1       -0.5492
@<TRIPOS>UNITY_ATOM_ATTR
33 1
charge -1
@<TRIPOS>BOND
     1    33    34   ar
     2    34    35   ar
     3    34    32    1
     4    32    31    1
     5    31    27    1
     6    27    28    2
     7    27    29   am
     8    29    21    1
     9    21    22   ar
    10    22    23   ar
    11    23    24   ar
    12    24     1    1
    13     1     2   ar
    14     2     3    1
    15     2     4   ar
    16     4     5   ar
    17     5     6   ar
    18     6     7   ar
    19     7     8   ar
    20     8    13    1
    21    13    14   ar
    22    14    15   ar
    23    15    16   ar
    24    16    17   ar
    25    17    18    1
    26    17    19   ar
    27     8     9   ar
    28     9    10   ar
    29    10    11   ar
    30    24    25   ar
    31    25    26   ar
    32    26    21   ar
    33    11     1   ar
    34    11     6   ar
    35    19    13   ar
    36    29    30    1
    37     3    12    1
    38    18    20    1
@<TRIPOS>MOLECULE
*****
 35 38 0 0 0
SMALL
GASTEIGER

@<TRIPOS>ATOM
      1 C          62.4862   86.6153   11.9058 C.ar    1  UNL1        0.0337
      2 C          62.5784   85.1843   12.3460 C.ar    1  UNL1        0.1336
      3 O          61.8164   84.1226   11.6096 O.3     1  UNL1       -0.5055
      4 C          63.4324   84.8150   13.5225 C.ar    1  UNL1        0.0366
      5 C          64.1944   85.8767   14.2588 C.ar    1  UNL1        0.0031
      6 C          64.1023   87.3078   13.8186 C.ar    1  UNL1        0.0002
      7 C          64.8643   88.3694   14.5549 C.ar    1  UNL1        0.0000
      8 C          64.7722   89.8004   14.1147 C.ar    1  UNL1        0.0001
      9 C          63.9181   90.1697   12.9382 C.ar    1  UNL1        0.0000
     10 C          63.1561   89.1080   12.2019 C.ar    1  UNL1        0.0001
     11 C          63.2482   87.6771   12.6421 C.ar    1  UNL1        0.0029
     12 H          61.2829   84.3532   10.8747 H       1  UNL1        0.2922
     13 C          65.5341   90.8622   14.8511 C.ar    1  UNL1        0.0030
     14 C          64.8710   91.6328   15.9539 C.ar    1  UNL1        0.0002
     15 C          65.6329   92.6945   16.6902 C.ar    1  UNL1        0.0031
     16 C          67.0580   92.9857   16.3237 C.ar    1  UNL1        0.0366
     17 C          67.7212   92.2150   15.2208 C.ar    1  UNL1        0.1337
     18 O          69.1463   92.5061   14.8543 O.3     1  UNL1       -0.5055
     19 C          66.9592   91.1532   14.4845 C.ar    1  UNL1        0.0366
     20 H          69.6222   93.1693   15.3142 H       1  UNL1        0.2922
     21 C          59.9241   87.7231    8.3762 C.ar    1  UNL1        0.0503
     22 C          61.1497   86.8813    8.1784 C.ar    1  UNL1        0.0147
     23 C          62.0038   86.5120    9.3549 C.ar    1  UNL1        0.0014
     24 C          61.6322   86.9846   10.7292 C.ar    1  UNL1        0.0030
     25 C          60.4066   87.8264   10.9270 C.ar    1  UNL1        0.0014
     26 C          59.5525   88.1957    9.7504 C.ar    1  UNL1        0.0147
     27 C          59.1234   89.4837    6.6414 C.2     1  UNL1        0.2265
     28 O          60.0308   90.5056    7.2596 O.2     1  UNL1       -0.2748
     29 N          59.0700   88.0924    7.1997 N.am    1  UNL1       -0.2839
     30 H          58.4744   87.4217    6.7939 H       1  UNL1        0.1549
     31 C          58.2693   89.8530    5.4649 C.3     1  UNL1        0.0913
     32 C          58.1998   91.2796    5.0070 C.3     1  UNL1        0.0513
     33 O          60.7470   91.5308    4.5617 O.co2   1  UNL1       -0.5492
     34 C          59.3278   91.8682    4.2126 C.2     1  UNL1        0.0508
     35 O          59.0367   92.7942    3.0690 O.co2   1  UNL1       -0.5492
@<TRIPOS>UNITY_ATOM_ATTR
33 1
charge -1
@<TRIPOS>BOND
     1    33    34   ar
     2    34    35   ar
     3    34    32    1
     4    32    31    1
     5    31    27    1
     6    27    28    2
     7    27    29   am
     8    29    21    1
     9    21    22   ar
    10    22    23   ar
    11    23    24   ar
    12    24     1    1
    13     1     2   ar
    14     2     3    1
    15     2     4   ar
    16     4     5   ar
    17     5     6   ar
    18     6     7   ar
    19     7     8   ar
    20     8    13    1
    21    13    14   ar
    22    14    15   ar
    23    15    16   ar
    24    16    17   ar
    25    17    18    1
    26    17    19   ar
    27     8     9   ar
    28     9    10   ar
    29    10    11   ar
    30    24    25   ar
    31    25    26   ar
    32    26    21   ar
    33    11     1   ar
    34    11     6   ar
    35    19    13   ar
    36    29    30    1
    37     3    12    1
    38    18    20    1
@<TRIPOS>MOLECULE
*****
 35 38 0 0 0
SMALL
GASTEIGER

@<TRIPOS>ATOM
      1 C          62.0472   87.2198   11.1077 C.ar    1  UNL1        0.0337
      2 C          62.0639   85.7400   11.3521 C.ar    1  UNL1        0.1336
      3 O          61.2687   84.8249   10.4687 O.3     1  UNL1       -0.5055
      4 C          62.8756   85.1752   12.4799 C.ar    1  UNL1        0.0366
      5 C          63.6708   86.0901   13.3633 C.ar    1  UNL1        0.0031
      6 C          63.6542   87.5701   13.1189 C.ar    1  UNL1        0.0002
      7 C          64.4494   88.4851   14.0023 C.ar    1  UNL1        0.0000
      8 C          64.4328   89.9649   13.7579 C.ar    1  UNL1        0.0001
      9 C          63.6210   90.5297   12.6301 C.ar    1  UNL1        0.0000
     10 C          62.8258   89.6147   11.7467 C.ar    1  UNL1        0.0001
     11 C          62.8425   88.1349   11.9911 C.ar    1  UNL1        0.0029
     12 H          60.7616   85.1777    9.7641 H       1  UNL1        0.2922
     13 C          65.2280   90.8800   14.6413 C.ar    1  UNL1        0.0030
     14 C          66.6971   91.0645   14.4013 C.ar    1  UNL1        0.0002
     15 C          67.4923   91.9795   15.2846 C.ar    1  UNL1        0.0031
     16 C          66.8184   92.7101   16.4081 C.ar    1  UNL1        0.0366
     17 C          65.3493   92.5256   16.6482 C.ar    1  UNL1        0.1337
     18 O          64.6753   93.2561   17.7716 O.3     1  UNL1       -0.5055
     19 C          64.5541   91.6105   15.7647 C.ar    1  UNL1        0.0366
     20 H          65.1721   93.8277   18.3234 H       1  UNL1        0.2922
     21 C          59.6119   88.9143    7.7242 C.ar    1  UNL1        0.0503
     22 C          60.1654   87.5236    7.6268 C.ar    1  UNL1        0.0147
     23 C          60.9772   86.9587    8.7546 C.ar    1  UNL1        0.0014
     24 C          61.2355   87.7847    9.9798 C.ar    1  UNL1        0.0030
     25 C          60.6820   89.1754   10.0772 C.ar    1  UNL1        0.0014
     26 C          59.8702   89.7402    8.9494 C.ar    1  UNL1        0.0147
     27 C          59.4208   90.4546    5.6407 C.2     1  UNL1        0.2265
     28 O          60.8532   90.8652    5.8128 O.2     1  UNL1       -0.2748
     29 N          58.8001   89.4792    6.5964 N.am    1  UNL1       -0.2839
     30 H          57.8600   89.2097    6.4834 H       1  UNL1        0.1549
     31 C          58.6090   91.0195    4.5128 C.3     1  UNL1        0.0913
     32 C          58.8186   92.4388    4.0754 C.3     1  UNL1        0.0513
     33 O          61.2156   92.3537    3.0768 O.co2   1  UNL1       -0.5492
     34 C          59.7728   92.7467    2.9597 C.2     1  UNL1        0.0508
     35 O          59.2841   93.4475    1.7268 O.co2   1  UNL1       -0.5492
@<TRIPOS>UNITY_ATOM_ATTR
33 1
charge -1
@<TRIPOS>BOND
     1    33    34   ar
     2    34    35   ar
     3    34    32    1
     4    32    31    1
     5    31    27    1
     6    27    28    2
     7    27    29   am
     8    29    21    1
     9    21    22   ar
    10    22    23   ar
    11    23    24   ar
    12    24     1    1
    13     1     2   ar
    14     2     3    1
    15     2     4   ar
    16     4     5   ar
    17     5     6   ar
    18     6     7   ar
    19     7     8   ar
    20     8    13    1
    21    13    14   ar
    22    14    15   ar
    23    15    16   ar
    24    16    17   ar
    25    17    18    1
    26    17    19   ar
    27     8     9   ar
    28     9    10   ar
    29    10    11   ar
    30    24    25   ar
    31    25    26   ar
    32    26    21   ar
    33    11     1   ar
    34    11     6   ar
    35    19    13   ar
    36    29    30    1
    37     3    12    1
    38    18    20    1
@<TRIPOS>MOLECULE
*****
 35 38 0 0 0
SMALL
GASTEIGER

@<TRIPOS>ATOM
      1 C          61.6263   93.7350    0.4500 C.ar    1  UNL1        0.0337
      2 C          62.8018   94.6598    0.3366 C.ar    1  UNL1        0.1336
      3 O          63.7222   94.8497    1.5057 O.3     1  UNL1       -0.5055
      4 C          63.0570   95.3947   -0.9459 C.ar    1  UNL1        0.0366
      5 C          62.1366   95.2048   -2.1150 C.ar    1  UNL1        0.0031
      6 C          60.9610   94.2800   -2.0017 C.ar    1  UNL1        0.0002
      7 C          60.0407   94.0901   -3.1708 C.ar    1  UNL1        0.0000
      8 C          58.8652   93.1653   -3.0574 C.ar    1  UNL1        0.0001
      9 C          58.6100   92.4304   -1.7749 C.ar    1  UNL1        0.0000
     10 C          59.5304   92.6203   -0.6058 C.ar    1  UNL1        0.0001
     11 C          60.7059   93.5451   -0.7192 C.ar    1  UNL1        0.0029
     12 H          63.5629   94.3907    2.3069 H       1  UNL1        0.2922
     13 C          57.9447   92.9754   -4.2265 C.ar    1  UNL1        0.0030
     14 C          58.0205   93.9070   -5.3997 C.ar    1  UNL1        0.0002
     15 C          57.1001   93.7171   -6.5688 C.ar    1  UNL1        0.0031
     16 C          56.1039   92.5956   -6.5648 C.ar    1  UNL1        0.0366
     17 C          56.0282   91.6641   -5.3915 C.ar    1  UNL1        0.1337
     18 O          55.0320   90.5426   -5.3874 O.3     1  UNL1       -0.5055
     19 C          56.9486   91.8540   -4.2224 C.ar    1  UNL1        0.0366
     20 H          54.4571   90.4240   -6.1177 H       1  UNL1        0.2922
     21 C          60.8608   91.5303    4.2975 C.ar    1  UNL1        0.0503
     22 C          62.1033   91.2481    3.5058 C.ar    1  UNL1        0.0147
     23 C          62.3584   91.9830    2.2233 C.ar    1  UNL1        0.0014
     24 C          61.3711   93.0001    1.7325 C.ar    1  UNL1        0.0030
     25 C          60.1288   93.2823    2.5242 C.ar    1  UNL1        0.0014
     26 C          59.8736   92.5474    3.8067 C.ar    1  UNL1        0.0147
     27 C          59.2239   90.3097    5.9040 C.2     1  UNL1        0.2265
     28 O          58.0973   90.5590    4.9455 O.2     1  UNL1       -0.2748
     29 N          60.6057   90.7954    5.5800 N.am    1  UNL1       -0.2839
     30 H          61.3450   90.6318    6.2091 H       1  UNL1        0.1549
     31 C          58.9687   89.5748    7.1865 C.3     1  UNL1        0.0913
     32 C          60.0114   88.6503    7.7414 C.3     1  UNL1        0.0513
     33 O          60.8444   86.2016    7.9860 O.co2   1  UNL1       -0.5492
     34 C          59.7175   87.1861    7.8815 C.2     1  UNL1        0.0508
     35 O          58.2968   86.7064    7.9172 O.co2   1  UNL1       -0.5492
@<TRIPOS>UNITY_ATOM_ATTR
33 1
charge -1
@<TRIPOS>BOND
     1    33    34   ar
     2    34    35   ar
     3    34    32    1
     4    32    31    1
     5    31    27    1
     6    27    28    2
     7    27    29   am
     8    29    21    1
     9    21    22   ar
    10    22    23   ar
    11    23    24   ar
    12    24     1    1
    13     1     2   ar
    14     2     3    1
    15     2     4   ar
    16     4     5   ar
    17     5     6   ar
    18     6     7   ar
    19     7     8   ar
    20     8    13    1
    21    13    14   ar
    22    14    15   ar
    23    15    16   ar
    24    16    17   ar
    25    17    18    1
    26    17    19   ar
    27     8     9   ar
    28     9    10   ar
    29    10    11   ar
    30    24    25   ar
    31    25    26   ar
    32    26    21   ar
    33    11     1   ar
    34    11     6   ar
    35    19    13   ar
    36    29    30    1
    37     3    12    1
    38    18    20    1
@<TRIPOS>MOLECULE
*****
 35 38 0 0 0
SMALL
GASTEIGER

@<TRIPOS>ATOM
      1 C          62.2314   87.4961   11.0635 C.ar    1  UNL1        0.0337
      2 C          62.3155   85.9995   11.1196 C.ar    1  UNL1        0.1336
      3 O          63.0386   85.3308   12.2510 O.3     1  UNL1       -0.5055
      4 C          61.6765   85.1715   10.0443 C.ar    1  UNL1        0.0366
      5 C          60.9533   85.8402    8.9130 C.ar    1  UNL1        0.0031
      6 C          60.8692   87.3368    8.8568 C.ar    1  UNL1        0.0002
      7 C          60.1461   88.0054    7.7255 C.ar    1  UNL1        0.0000
      8 C          60.0620   89.5020    7.6694 C.ar    1  UNL1        0.0001
      9 C          60.7010   90.3299    8.7446 C.ar    1  UNL1        0.0000
     10 C          61.4241   89.6613    9.8760 C.ar    1  UNL1        0.0001
     11 C          61.5082   88.1647    9.9321 C.ar    1  UNL1        0.0029
     12 H          63.4378   85.8480   12.9227 H       1  UNL1        0.2922
     13 C          59.3388   90.1706    6.5380 C.ar    1  UNL1        0.0030
     14 C          60.1068   90.9584    5.5183 C.ar    1  UNL1        0.0002
     15 C          59.3838   91.6271    4.3870 C.ar    1  UNL1        0.0031
     16 C          57.8926   91.5080    4.2752 C.ar    1  UNL1        0.0366
     17 C          57.1246   90.7203    5.2949 C.ar    1  UNL1        0.1337
     18 O          55.6336   90.6012    5.1831 O.3     1  UNL1       -0.5055
     19 C          57.8478   90.0516    6.4263 C.ar    1  UNL1        0.0366
     20 H          55.1819   91.0189    4.4764 H       1  UNL1        0.2922
     21 C          64.1485   89.9799   14.2892 C.ar    1  UNL1        0.0503
     22 C          64.2791   88.4858   14.3158 C.ar    1  UNL1        0.0147
     23 C          63.6401   87.6578   13.2405 C.ar    1  UNL1        0.0014
     24 C          62.8704   88.3240   12.1387 C.ar    1  UNL1        0.0030
     25 C          62.7398   89.8180   12.1122 C.ar    1  UNL1        0.0014
     26 C          63.3788   90.6460   13.1874 C.ar    1  UNL1        0.0147
     27 C          65.8764   91.7789   15.0159 C.2     1  UNL1        0.2265
     28 O          66.3263   91.9219   13.5921 O.2     1  UNL1       -0.2748
     29 N          64.7875   90.8079   15.3645 N.am    1  UNL1       -0.2839
     30 H          64.4922   90.7140   16.2989 H       1  UNL1        0.1549
     31 C          66.5154   92.6068   16.0911 C.3     1  UNL1        0.0913
     32 C          67.9783   92.4541   16.3856 C.3     1  UNL1        0.0513
     33 O          69.4951   92.6614   14.2865 O.co2   1  UNL1       -0.5492
     34 C          68.9887   93.2194   15.5835 C.2     1  UNL1        0.0508
     35 O          69.4927   94.5426   16.0784 O.co2   1  UNL1       -0.5492
@<TRIPOS>UNITY_ATOM_ATTR
33 1
charge -1
@<TRIPOS>BOND
     1    33    34   ar
     2    34    35   ar
     3    34    32    1
     4    32    31    1
     5    31    27    1
     6    27    28    2
     7    27    29   am
     8    29    21    1
     9    21    22   ar
    10    22    23   ar
    11    23    24   ar
    12    24     1    1
    13     1     2   ar
    14     2     3    1
    15     2     4   ar
    16     4     5   ar
    17     5     6   ar
    18     6     7   ar
    19     7     8   ar
    20     8    13    1
    21    13    14   ar
    22    14    15   ar
    23    15    16   ar
    24    16    17   ar
    25    17    18    1
    26    17    19   ar
    27     8     9   ar
    28     9    10   ar
    29    10    11   ar
    30    24    25   ar
    31    25    26   ar
    32    26    21   ar
    33    11     1   ar
    34    11     6   ar
    35    19    13   ar
    36    29    30    1
    37     3    12    1
    38    18    20    1
@<TRIPOS>MOLECULE
*****
 35 38 0 0 0
SMALL
GASTEIGER

@<TRIPOS>ATOM
      1 C          60.1123   88.7163    8.0163 C.ar    1  UNL1        0.0337
      2 C          59.5150   87.3409    8.0562 C.ar    1  UNL1        0.1336
      3 O          58.5916   86.8922    6.9625 O.3     1  UNL1       -0.5055
      4 C          59.8409   86.4143    9.1898 C.ar    1  UNL1        0.0366
      5 C          60.7642   86.8629   10.2835 C.ar    1  UNL1        0.0031
      6 C          61.3616   88.2383   10.2436 C.ar    1  UNL1        0.0002
      7 C          62.2849   88.6870   11.3373 C.ar    1  UNL1        0.0000
      8 C          62.8823   90.0623   11.2974 C.ar    1  UNL1        0.0001
      9 C          62.5563   90.9889   10.1638 C.ar    1  UNL1        0.0000
     10 C          61.6330   90.5403    9.0701 C.ar    1  UNL1        0.0001
     11 C          61.0357   89.1650    9.1101 C.ar    1  UNL1        0.0029
     12 H          58.3880   87.4711    6.2544 H       1  UNL1        0.2922
     13 C          63.8056   90.5110   12.3911 C.ar    1  UNL1        0.0030
     14 C          63.9423   89.6920   13.6403 C.ar    1  UNL1        0.0002
     15 C          64.8656   90.1406   14.7340 C.ar    1  UNL1        0.0031
     16 C          65.6523   91.4084   14.5785 C.ar    1  UNL1        0.0366
     17 C          65.5156   92.2274   13.3293 C.ar    1  UNL1        0.1337
     18 O          66.3022   93.4951   13.1738 O.3     1  UNL1       -0.5055
     19 C          64.5922   91.7787   12.2356 C.ar    1  UNL1        0.0366
     20 H          66.8789   93.7753   13.8570 H       1  UNL1        0.2922
     21 C          59.1344   91.4963    4.6156 C.ar    1  UNL1        0.0503
     22 C          58.0370   90.9662    5.4902 C.ar    1  UNL1        0.0147
     23 C          58.3630   90.0395    6.6238 C.ar    1  UNL1        0.0014
     24 C          59.7863   89.6429    6.8827 C.ar    1  UNL1        0.0030
     25 C          60.8836   90.1730    6.0081 C.ar    1  UNL1        0.0014
     26 C          60.5576   91.0997    4.8746 C.ar    1  UNL1        0.0147
     27 C          59.8989   92.9113    2.5751 C.2     1  UNL1        0.2265
     28 O          61.3154   92.4729    2.8019 O.2     1  UNL1       -0.2748
     29 N          58.8084   92.4230    3.4820 N.am    1  UNL1       -0.2839
     30 H          57.8787   92.7107    3.3332 H       1  UNL1        0.1549
     31 C          59.5730   93.8379    1.4415 C.3     1  UNL1        0.0913
     32 C          59.2018   93.2799    0.0996 C.3     1  UNL1        0.0513
     33 O          56.8513   92.5800   -0.7576 O.co2   1  UNL1       -0.5492
     34 C          57.8865   93.6402   -0.5248 C.2     1  UNL1        0.0508
     35 O          57.6063   95.0608   -0.9164 O.co2   1  UNL1       -0.5492
@<TRIPOS>UNITY_ATOM_ATTR
33 1
charge -1
@<TRIPOS>BOND
     1    33    34   ar
     2    34    35   ar
     3    34    32    1
     4    32    31    1
     5    31    27    1
     6    27    28    2
     7    27    29   am
     8    29    21    1
     9    21    22   ar
    10    22    23   ar
    11    23    24   ar
    12    24     1    1
    13     1     2   ar
    14     2     3    1
    15     2     4   ar
    16     4     5   ar
    17     5     6   ar
    18     6     7   ar
    19     7     8   ar
    20     8    13    1
    21    13    14   ar
    22    14    15   ar
    23    15    16   ar
    24    16    17   ar
    25    17    18    1
    26    17    19   ar
    27     8     9   ar
    28     9    10   ar
    29    10    11   ar
    30    24    25   ar
    31    25    26   ar
    32    26    21   ar
    33    11     1   ar
    34    11     6   ar
    35    19    13   ar
    36    29    30    1
    37     3    12    1
    38    18    20    1
@<TRIPOS>MOLECULE
*****
 35 38 0 0 0
SMALL
GASTEIGER

@<TRIPOS>ATOM
      1 C          58.7910   90.2205    5.9029 C.ar    1  UNL1        0.0337
      2 C          57.3119   90.4629    5.8453 C.ar    1  UNL1        0.1336
      3 O          56.3958   89.7381    6.7863 O.3     1  UNL1       -0.5055
      4 C          56.7488   91.4302    4.8466 C.ar    1  UNL1        0.0366
      5 C          57.6648   92.1550    3.9056 C.ar    1  UNL1        0.0031
      6 C          59.1440   91.9126    3.9633 C.ar    1  UNL1        0.0002
      7 C          60.0600   92.6374    3.0223 C.ar    1  UNL1        0.0000
      8 C          61.5392   92.3949    3.0799 C.ar    1  UNL1        0.0001
      9 C          62.1023   91.4276    4.0786 C.ar    1  UNL1        0.0000
     10 C          61.1862   90.7028    5.0196 C.ar    1  UNL1        0.0001
     11 C          59.7071   90.9453    4.9619 C.ar    1  UNL1        0.0029
     12 H          56.7475   89.1339    7.4101 H       1  UNL1        0.2922
     13 C          62.4553   93.1197    2.1389 C.ar    1  UNL1        0.0030
     14 C          62.0080   94.3968    1.4916 C.ar    1  UNL1        0.0002
     15 C          62.9240   95.1216    0.5507 C.ar    1  UNL1        0.0031
     16 C          64.2874   94.5694    0.2569 C.ar    1  UNL1        0.0366
     17 C          64.7347   93.2923    0.9042 C.ar    1  UNL1        0.1337
     18 O          66.0980   92.7400    0.6105 O.3     1  UNL1       -0.5055
     19 C          63.8186   92.5675    1.8452 C.ar    1  UNL1        0.0366
     20 H          66.6703   93.1928    0.0227 H       1  UNL1        0.2922
     21 C          60.4803   87.3187    8.8989 C.ar    1  UNL1        0.0503
     22 C          60.6184   88.7952    9.1246 C.ar    1  UNL1        0.0147
     23 C          60.0553   89.7625    8.1260 C.ar    1  UNL1        0.0014
     24 C          59.3541   89.2532    6.9016 C.ar    1  UNL1        0.0030
     25 C          59.2160   87.7767    6.6759 C.ar    1  UNL1        0.0014
     26 C          59.7791   86.8095    7.6746 C.ar    1  UNL1        0.0147
     27 C          62.3242   85.6287    9.6019 C.2     1  UNL1        0.2265
     28 O          63.0418   85.8733    8.3077 O.2     1  UNL1       -0.2748
     29 N          61.0434   86.3514    9.8976 N.am    1  UNL1       -0.2839
     30 H          60.5724   86.1908   10.7470 H       1  UNL1        0.1549
     31 C          62.8873   84.6614   10.6006 C.3     1  UNL1        0.0913
     32 C          63.7986   83.5600   10.1464 C.3     1  UNL1        0.0513
     33 O          64.5817   82.2281   12.2351 O.co2   1  UNL1       -0.5492
     34 C          63.8652   82.2755   10.9182 C.2     1  UNL1        0.0508
     35 O          63.2153   81.0384   10.3731 O.co2   1  UNL1       -0.5492
@<TRIPOS>UNITY_ATOM_ATTR
33 1
charge -1
@<TRIPOS>BOND
     1    33    34   ar
     2    34    35   ar
     3    34    32    1
     4    32    31    1
     5    31    27    1
     6    27    28    2
     7    27    29   am
     8    29    21    1
     9    21    22   ar
    10    22    23   ar
    11    23    24   ar
    12    24     1    1
    13     1     2   ar
    14     2     3    1
    15     2     4   ar
    16     4     5   ar
    17     5     6   ar
    18     6     7   ar
    19     7     8   ar
    20     8    13    1
    21    13    14   ar
    22    14    15   ar
    23    15    16   ar
    24    16    17   ar
    25    17    18    1
    26    17    19   ar
    27     8     9   ar
    28     9    10   ar
    29    10    11   ar
    30    24    25   ar
    31    25    26   ar
    32    26    21   ar
    33    11     1   ar
    34    11     6   ar
    35    19    13   ar
    36    29    30    1
    37     3    12    1
    38    18    20    1
@<TRIPOS>MOLECULE
*****
 35 38 0 0 0
SMALL
GASTEIGER

@<TRIPOS>ATOM
      1 C          62.1345   87.4341   11.1165 C.ar    1  UNL1        0.0337
      2 C          61.1429   87.9667   10.1250 C.ar    1  UNL1        0.1336
      3 O          60.3831   87.0213    9.2424 O.3     1  UNL1       -0.5055
      4 C          60.9111   89.4446   10.0161 C.ar    1  UNL1        0.0366
      5 C          61.6709   90.3900   10.8987 C.ar    1  UNL1        0.0031
      6 C          62.6626   89.8574   11.8902 C.ar    1  UNL1        0.0002
      7 C          63.4224   90.8028   12.7727 C.ar    1  UNL1        0.0000
      8 C          64.4140   90.2702   13.7642 C.ar    1  UNL1        0.0001
      9 C          64.6458   88.7923   13.8731 C.ar    1  UNL1        0.0000
     10 C          63.8860   87.8469   12.9905 C.ar    1  UNL1        0.0001
     11 C          62.8944   88.3795   11.9991 C.ar    1  UNL1        0.0029
     12 H          60.5279   86.0980    9.3104 H       1  UNL1        0.2922
     13 C          65.1738   91.2156   14.6468 C.ar    1  UNL1        0.0030
     14 C          64.5613   91.7035   15.9262 C.ar    1  UNL1        0.0002
     15 C          65.3211   92.6488   16.8088 C.ar    1  UNL1        0.0031
     16 C          66.6934   93.1064   16.4120 C.ar    1  UNL1        0.0366
     17 C          67.3060   92.6185   15.1326 C.ar    1  UNL1        0.1337
     18 O          68.6783   93.0760   14.7359 O.3     1  UNL1       -0.5055
     19 C          66.5461   91.6731   14.2500 C.ar    1  UNL1        0.0366
     20 H          69.1529   93.6665   15.2872 H       1  UNL1        0.2922
     21 C          62.8300   83.0002   11.4432 C.ar    1  UNL1        0.0503
     22 C          62.9930   83.6895   10.1209 C.ar    1  UNL1        0.0147
     23 C          62.7612   85.1674   10.0120 C.ar    1  UNL1        0.0014
     24 C          62.3664   85.9561   11.2254 C.ar    1  UNL1        0.0030
     25 C          62.2034   85.2668   12.5475 C.ar    1  UNL1        0.0014
     26 C          62.4352   83.7888   12.6565 C.ar    1  UNL1        0.0147
     27 C          62.4449   80.7473   12.6786 C.2     1  UNL1        0.2265
     28 O          61.5962   81.4503   13.6961 O.2     1  UNL1       -0.2748
     29 N          63.0618   81.5222   11.5521 N.am    1  UNL1       -0.2839
     30 H          63.6189   81.0608   10.8842 H       1  UNL1        0.1549
     31 C          62.6767   79.2693   12.7875 C.3     1  UNL1        0.0913
     32 C          62.1145   78.3435   11.7498 C.3     1  UNL1        0.0513
     33 O          63.5525   76.8538   10.1804 O.co2   1  UNL1       -0.5492
     34 C          62.8381   78.1447   10.4510 C.2     1  UNL1        0.0508
     35 O          62.8473   79.2367    9.4228 O.co2   1  UNL1       -0.5492
@<TRIPOS>UNITY_ATOM_ATTR
33 1
charge -1
@<TRIPOS>BOND
     1    33    34   ar
     2    34    35   ar
     3    34    32    1
     4    32    31    1
     5    31    27    1
     6    27    28    2
     7    27    29   am
     8    29    21    1
     9    21    22   ar
    10    22    23   ar
    11    23    24   ar
    12    24     1    1
    13     1     2   ar
    14     2     3    1
    15     2     4   ar
    16     4     5   ar
    17     5     6   ar
    18     6     7   ar
    19     7     8   ar
    20     8    13    1
    21    13    14   ar
    22    14    15   ar
    23    15    16   ar
    24    16    17   ar
    25    17    18    1
    26    17    19   ar
    27     8     9   ar
    28     9    10   ar
    29    10    11   ar
    30    24    25   ar
    31    25    26   ar
    32    26    21   ar
    33    11     1   ar
    34    11     6   ar
    35    19    13   ar
    36    29    30    1
    37     3    12    1
    38    18    20    1
@<TRIPOS>MOLECULE
*****
 35 38 0 0 0
SMALL
GASTEIGER

@<TRIPOS>ATOM
      1 C          60.1626   88.6375    8.0088 C.ar    1  UNL1        0.0337
      2 C          59.6641   87.2238    7.9578 C.ar    1  UNL1        0.1336
      3 O          58.8417   86.7600    6.7921 O.3     1  UNL1       -0.5055
      4 C          59.9879   86.2736    9.0724 C.ar    1  UNL1        0.0366
      5 C          60.8103   86.7373   10.2381 C.ar    1  UNL1        0.0031
      6 C          61.3089   88.1511   10.2891 C.ar    1  UNL1        0.0002
      7 C          62.1312   88.6147   11.4548 C.ar    1  UNL1        0.0000
      8 C          62.6297   90.0285   11.5058 C.ar    1  UNL1        0.0001
      9 C          62.3059   90.9787   10.3911 C.ar    1  UNL1        0.0000
     10 C          61.4836   90.5150    9.2255 C.ar    1  UNL1        0.0001
     11 C          60.9850   89.1012    9.1745 C.ar    1  UNL1        0.0029
     12 H          58.6394   87.3536    6.0959 H       1  UNL1        0.2922
     13 C          63.4521   90.4922   12.6714 C.ar    1  UNL1        0.0030
     14 C          64.6979   91.2946   12.4385 C.ar    1  UNL1        0.0002
     15 C          65.5203   91.7583   13.6040 C.ar    1  UNL1        0.0031
     16 C          65.0969   91.4196   15.0027 C.ar    1  UNL1        0.0366
     17 C          63.8511   90.6173   15.2357 C.ar    1  UNL1        0.1337
     18 O          63.4278   90.2786   16.6342 O.3     1  UNL1       -0.5055
     19 C          63.0287   90.1536   14.0700 C.ar    1  UNL1        0.0366
     20 H          63.9415   90.5682   17.3624 H       1  UNL1        0.2922
     21 C          59.1912   91.4880    4.6650 C.ar    1  UNL1        0.0503
     22 C          58.0929   90.9447    5.5303 C.ar    1  UNL1        0.0147
     23 C          58.4167   89.9946    6.6449 C.ar    1  UNL1        0.0014
     24 C          59.8388   89.5877    6.8942 C.ar    1  UNL1        0.0030
     25 C          60.9370   90.1309    6.0289 C.ar    1  UNL1        0.0014
     26 C          60.6132   91.0811    4.9143 C.ar    1  UNL1        0.0147
     27 C          59.9552   92.9233    2.6386 C.2     1  UNL1        0.2265
     28 O          61.3668   92.4584    2.8415 O.2     1  UNL1       -0.2748
     29 N          58.8674   92.4381    3.5504 N.am    1  UNL1       -0.2839
     30 H          57.9409   92.7433    3.4172 H       1  UNL1        0.1549
     31 C          59.6314   93.8734    1.5240 C.3     1  UNL1        0.0913
     32 C          60.7284   94.4086    0.6522 C.3     1  UNL1        0.0513
     33 O          61.2396   96.8554    1.3604 O.co2   1  UNL1       -0.5492
     34 C          61.6829   95.4325    1.1913 C.2     1  UNL1        0.0508
     35 O          63.0807   95.0335    1.5612 O.co2   1  UNL1       -0.5492
@<TRIPOS>UNITY_ATOM_ATTR
33 1
charge -1
@<TRIPOS>BOND
     1    33    34   ar
     2    34    35   ar
     3    34    32    1
     4    32    31    1
     5    31    27    1
     6    27    28    2
     7    27    29   am
     8    29    21    1
     9    21    22   ar
    10    22    23   ar
    11    23    24   ar
    12    24     1    1
    13     1     2   ar
    14     2     3    1
    15     2     4   ar
    16     4     5   ar
    17     5     6   ar
    18     6     7   ar
    19     7     8   ar
    20     8    13    1
    21    13    14   ar
    22    14    15   ar
    23    15    16   ar
    24    16    17   ar
    25    17    18    1
    26    17    19   ar
    27     8     9   ar
    28     9    10   ar
    29    10    11   ar
    30    24    25   ar
    31    25    26   ar
    32    26    21   ar
    33    11     1   ar
    34    11     6   ar
    35    19    13   ar
    36    29    30    1
    37     3    12    1
    38    18    20    1
