@<TRIPOS>MOLECULE
*****
 24 26 0 0 0
SMALL
GASTEIGER

@<TRIPOS>ATOM
      1 S          62.1743   89.8539   11.4328 S.O2    1  UNL1        0.0129
      2 O          61.9473   90.5039   10.1001 O.2     1  UNL1       -0.1683
      3 O          62.4014   89.2040   12.7654 O.2     1  UNL1       -0.1683
      4 C          63.3434   90.7618   11.6763 C.ar    1  UNL1        0.1066
      5 C          63.8544   91.6391   10.5722 C.ar    1  UNL1        0.0199
      6 C          65.0234   92.5469   10.8157 C.ar    1  UNL1        0.0210
      7 C          65.6814   92.5773   12.1634 C.ar    1  UNL1        0.0893
      8 N          66.8426   93.3636   12.6958 N.ar    1  UNL1       -0.2245
      9 C          67.0491   92.9722   14.1291 C.ar    1  UNL1        0.1567
     10 N          68.1040   93.5139   15.0478 N.pl3   1  UNL1       -0.3375
     11 S          66.0156   91.9440   14.4823 S.2     1  UNL1       -0.0519
     12 C          65.1704   91.6999   13.2675 C.ar    1  UNL1        0.0510
     13 C          64.0014   90.7922   13.0239 C.ar    1  UNL1        0.0264
     14 H          68.7406   94.1904   14.7217 H       1  UNL1        0.1442
     15 H          68.1596   93.1930   15.9768 H       1  UNL1        0.1442
     16 C          61.0053   88.9462   11.1892 C.3     1  UNL1        0.1823
     17 C          61.1552   85.9303    7.8527 C.ar    1  UNL1        0.0684
     18 C          59.9407   86.7927    8.0302 C.ar    1  UNL1        0.0100
     19 C          59.8908   87.7980    9.1424 C.ar    1  UNL1       -0.0019
     20 C          61.0553   87.9409   10.0770 C.ar    1  UNL1        0.0018
     21 C          62.2697   87.0786    9.8995 C.ar    1  UNL1       -0.0019
     22 C          62.3197   86.0733    8.7873 C.ar    1  UNL1        0.0100
     23 N          61.2552   83.9198    5.6284 N.1     1  UNL1       -0.1908
     24 C          61.2052   84.9251    6.7405 C.1     1  UNL1        0.1004
@<TRIPOS>BOND
     1    23    24    3
     2    24    17    1
     3    17    18   ar
     4    18    19   ar
     5    19    20   ar
     6    20    16    1
     7    16     1    1
     8     1     2    2
     9     1     3    2
    10     1     4    1
    11     4     5   ar
    12     5     6   ar
    13     6     7   ar
    14     7     8   ar
    15     8     9   ar
    16     9    10    1
    17     9    11   ar
    18    11    12   ar
    19    12    13   ar
    20    20    21   ar
    21    21    22   ar
    22    22    17   ar
    23    13     4   ar
    24    12     7   ar
    25    10    14    1
    26    10    15    1
@<TRIPOS>MOLECULE
*****
 24 26 0 0 0
SMALL
GASTEIGER

@<TRIPOS>ATOM
      1 S          62.2040   89.7614   11.6229 S.O2    1  UNL1        0.0129
      2 O          62.1845   89.4460   13.0892 O.2     1  UNL1       -0.1683
      3 O          62.2235   90.0769   10.1566 O.2     1  UNL1       -0.1683
      4 C          63.3463   90.7087   11.8419 C.ar    1  UNL1        0.1066
      5 C          64.0574   90.7335   13.1624 C.ar    1  UNL1        0.0199
      6 C          65.1996   91.6808   13.3814 C.ar    1  UNL1        0.0210
      7 C          65.6307   92.6032   12.2799 C.ar    1  UNL1        0.0893
      8 N          66.7144   93.6376   12.2034 N.ar    1  UNL1       -0.2245
      9 C          66.6730   94.2520   10.8357 C.ar    1  UNL1        0.1567
     10 N          67.5814   95.3315   10.3261 N.pl3   1  UNL1       -0.3375
     11 S          65.5638   93.5974   10.0669 S.2     1  UNL1       -0.0519
     12 C          64.9196   92.5784   10.9594 C.ar    1  UNL1        0.0510
     13 C          63.7774   91.6312   10.7404 C.ar    1  UNL1        0.0264
     14 H          68.2837   95.6999   10.9095 H       1  UNL1        0.1442
     15 H          67.4753   95.6717    9.4084 H       1  UNL1        0.1442
     16 C          61.0618   88.8142   11.4039 C.3     1  UNL1        0.1823
     17 C          61.1622   85.9280    7.9529 C.ar    1  UNL1        0.0684
     18 C          62.2382   85.8861    8.9972 C.ar    1  UNL1        0.0100
     19 C          62.2047   86.8482   10.1475 C.ar    1  UNL1       -0.0019
     20 C          61.0952   87.8521   10.2536 C.ar    1  UNL1        0.0018
     21 C          60.0193   87.8939    9.2093 C.ar    1  UNL1       -0.0019
     22 C          60.0527   86.9319    8.0590 C.ar    1  UNL1        0.0100
     23 N          61.2291   84.0038    5.6522 N.1     1  UNL1       -0.1908
     24 C          61.1956   84.9659    6.8025 C.1     1  UNL1        0.1004
@<TRIPOS>BOND
     1    23    24    3
     2    24    17    1
     3    17    18   ar
     4    18    19   ar
     5    19    20   ar
     6    20    16    1
     7    16     1    1
     8     1     2    2
     9     1     3    2
    10     1     4    1
    11     4     5   ar
    12     5     6   ar
    13     6     7   ar
    14     7     8   ar
    15     8     9   ar
    16     9    10    1
    17     9    11   ar
    18    11    12   ar
    19    12    13   ar
    20    20    21   ar
    21    21    22   ar
    22    22    17   ar
    23    13     4   ar
    24    12     7   ar
    25    10    14    1
    26    10    15    1
@<TRIPOS>MOLECULE
*****
 24 26 0 0 0
SMALL
GASTEIGER

@<TRIPOS>ATOM
      1 S          62.7539   89.7776   11.4967 S.O2    1  UNL1        0.0129
      2 O          62.4856   89.4684   12.9397 O.2     1  UNL1       -0.1683
      3 O          63.0221   90.0869   10.0537 O.2     1  UNL1       -0.1683
      4 C          63.7664   90.8062   11.9054 C.ar    1  UNL1        0.1066
      5 C          64.2717   91.8009   10.9029 C.ar    1  UNL1        0.0199
      6 C          65.2841   92.8294   11.3117 C.ar    1  UNL1        0.0210
      7 C          65.7912   92.8632   12.7230 C.ar    1  UNL1        0.0893
      8 N          66.7818   93.7539   13.4125 N.ar    1  UNL1       -0.2245
      9 C          66.8887   93.3096   14.8412 C.ar    1  UNL1        0.1567
     10 N          67.7660   93.9229   15.8921 N.pl3   1  UNL1       -0.3375
     11 S          65.9642   92.1443   15.0346 S.2     1  UNL1       -0.0519
     12 C          65.2859   91.8684   13.7255 C.ar    1  UNL1        0.0510
     13 C          64.2735   90.8399   13.3167 C.ar    1  UNL1        0.0264
     14 H          68.3412   94.6896   15.6671 H       1  UNL1        0.1442
     15 H          67.7667   93.5587   16.8067 H       1  UNL1        0.1442
     16 C          61.7414   88.7491   11.0880 C.3     1  UNL1        0.1823
     17 C          62.9690   84.4451   10.6203 C.ar    1  UNL1        0.0684
     18 C          62.8679   85.0518   11.9885 C.ar    1  UNL1        0.0100
     19 C          62.4587   86.4864   12.1444 C.ar    1  UNL1       -0.0019
     20 C          62.1506   87.3145   10.9321 C.ar    1  UNL1        0.0018
     21 C          62.2517   86.7078    9.5640 C.ar    1  UNL1       -0.0019
     22 C          62.6608   85.2731    9.4081 C.ar    1  UNL1        0.0100
     23 N          63.7873   81.5758   10.3084 N.1     1  UNL1       -0.1908
     24 C          63.3782   83.0105   10.4644 C.1     1  UNL1        0.1004
@<TRIPOS>BOND
     1    23    24    3
     2    24    17    1
     3    17    18   ar
     4    18    19   ar
     5    19    20   ar
     6    20    16    1
     7    16     1    1
     8     1     2    2
     9     1     3    2
    10     1     4    1
    11     4     5   ar
    12     5     6   ar
    13     6     7   ar
    14     7     8   ar
    15     8     9   ar
    16     9    10    1
    17     9    11   ar
    18    11    12   ar
    19    12    13   ar
    20    20    21   ar
    21    21    22   ar
    22    22    17   ar
    23    13     4   ar
    24    12     7   ar
    25    10    14    1
    26    10    15    1
@<TRIPOS>MOLECULE
*****
 24 26 0 0 0
SMALL
GASTEIGER

@<TRIPOS>ATOM
      1 S          62.0644   87.2006   10.6672 S.O2    1  UNL1        0.0129
      2 O          62.8960   87.2559    9.4200 O.2     1  UNL1       -0.1683
      3 O          61.2328   87.1454   11.9143 O.2     1  UNL1       -0.1683
      4 C          62.4361   85.7590   10.8511 C.ar    1  UNL1        0.1066
      5 C          62.9465   84.9618    9.6875 C.ar    1  UNL1        0.0199
      6 C          63.3181   83.5203    9.8714 C.ar    1  UNL1        0.0210
      7 C          63.1793   82.8760   11.2189 C.ar    1  UNL1        0.0893
      8 N          63.4650   81.4842   11.7001 N.ar    1  UNL1       -0.2245
      9 C          63.1311   81.4214   13.1611 C.ar    1  UNL1        0.1567
     10 N          63.2655   80.2171   14.0453 N.pl3   1  UNL1       -0.3375
     11 S          62.6391   82.7743   13.5828 S.2     1  UNL1       -0.0519
     12 C          62.6689   83.6732   12.3824 C.ar    1  UNL1        0.0510
     13 C          62.2973   85.1147   12.1985 C.ar    1  UNL1        0.0264
     14 H          63.5997   79.3687   13.6741 H       1  UNL1        0.1442
     15 H          63.0195   80.2751   14.9968 H       1  UNL1        0.1442
     16 C          61.6928   88.6422   10.4833 C.3     1  UNL1        0.1823
     17 C          64.5344   91.8814   11.7804 C.ar    1  UNL1        0.0684
     18 C          64.1635   90.7835   12.7328 C.ar    1  UNL1        0.0100
     19 C          63.2163   89.7037   12.3004 C.ar    1  UNL1       -0.0019
     20 C          62.6400   89.7219   10.9156 C.ar    1  UNL1        0.0018
     21 C          63.0109   90.8198    9.9633 C.ar    1  UNL1       -0.0019
     22 C          63.9580   91.8996   10.3957 C.ar    1  UNL1        0.0100
     23 N          66.4288   94.0410   12.6451 N.1     1  UNL1       -0.1908
     24 C          65.4816   92.9612   12.2127 C.1     1  UNL1        0.1004
@<TRIPOS>BOND
     1    23    24    3
     2    24    17    1
     3    17    18   ar
     4    18    19   ar
     5    19    20   ar
     6    20    16    1
     7    16     1    1
     8     1     2    2
     9     1     3    2
    10     1     4    1
    11     4     5   ar
    12     5     6   ar
    13     6     7   ar
    14     7     8   ar
    15     8     9   ar
    16     9    10    1
    17     9    11   ar
    18    11    12   ar
    19    12    13   ar
    20    20    21   ar
    21    21    22   ar
    22    22    17   ar
    23    13     4   ar
    24    12     7   ar
    25    10    14    1
    26    10    15    1
@<TRIPOS>MOLECULE
*****
 24 26 0 0 0
SMALL
GASTEIGER

@<TRIPOS>ATOM
      1 S          63.6631   89.0118   13.6417 S.O2    1  UNL1        0.0129
      2 O          64.5934   89.1173   14.8135 O.2     1  UNL1       -0.1683
      3 O          62.7327   88.9064   12.4698 O.2     1  UNL1       -0.1683
      4 C          63.8019   87.5184   13.6659 C.ar    1  UNL1        0.1066
      5 C          64.5657   86.8540   14.7727 C.ar    1  UNL1        0.0199
      6 C          64.7045   85.3607   14.7969 C.ar    1  UNL1        0.0210
      7 C          64.0795   84.5317   13.7143 C.ar    1  UNL1        0.0893
      8 N          64.0485   83.0512   13.4752 N.ar    1  UNL1       -0.2245
      9 C          63.2656   82.8006   12.2205 C.ar    1  UNL1        0.1567
     10 N          62.9848   81.4597   11.6094 N.pl3   1  UNL1       -0.3375
     11 S          62.8126   84.1262   11.6843 S.2     1  UNL1       -0.0519
     12 C          63.3156   85.1961   12.6074 C.ar    1  UNL1        0.0510
     13 C          63.1768   86.6894   12.5833 C.ar    1  UNL1        0.0264
     14 H          63.3269   80.6421   12.0380 H       1  UNL1        0.1442
     15 H          62.4585   81.3974   10.7797 H       1  UNL1        0.1442
     16 C          63.5243   90.5051   13.6175 C.3     1  UNL1        0.1823
     17 C          66.3058   92.9828   11.0927 C.ar    1  UNL1        0.0684
     18 C          66.6339   92.7196   12.5326 C.ar    1  UNL1        0.0100
     19 C          65.7067   91.8937   13.3742 C.ar    1  UNL1       -0.0019
     20 C          64.4515   91.3310   12.7759 C.ar    1  UNL1        0.0018
     21 C          64.1235   91.5943   11.3361 C.ar    1  UNL1       -0.0019
     22 C          65.0506   92.4201   10.4945 C.ar    1  UNL1        0.0100
     23 N          68.1602   94.6346    9.4096 N.1     1  UNL1       -0.1908
     24 C          67.2330   93.8087   10.2511 C.1     1  UNL1        0.1004
@<TRIPOS>BOND
     1    23    24    3
     2    24    17    1
     3    17    18   ar
     4    18    19   ar
     5    19    20   ar
     6    20    16    1
     7    16     1    1
     8     1     2    2
     9     1     3    2
    10     1     4    1
    11     4     5   ar
    12     5     6   ar
    13     6     7   ar
    14     7     8   ar
    15     8     9   ar
    16     9    10    1
    17     9    11   ar
    18    11    12   ar
    19    12    13   ar
    20    20    21   ar
    21    21    22   ar
    22    22    17   ar
    23    13     4   ar
    24    12     7   ar
    25    10    14    1
    26    10    15    1
@<TRIPOS>MOLECULE
*****
 24 26 0 0 0
SMALL
GASTEIGER

@<TRIPOS>ATOM
      1 S          62.9921   88.8586   12.7122 S.O2    1  UNL1        0.0129
      2 O          64.0264   88.5552   13.7553 O.2     1  UNL1       -0.1683
      3 O          61.9578   89.1621   11.6691 O.2     1  UNL1       -0.1683
      4 C          62.9151   87.4014   12.3647 C.ar    1  UNL1        0.1066
      5 C          62.2654   86.9692   11.0837 C.ar    1  UNL1        0.0199
      6 C          62.1884   85.5121   10.7362 C.ar    1  UNL1        0.0210
      7 C          62.7613   84.4872   11.6697 C.ar    1  UNL1        0.0893
      8 N          62.8328   82.9906   11.5956 N.ar    1  UNL1       -0.2245
      9 C          63.5268   82.4980   12.8308 C.ar    1  UNL1        0.1567
     10 N          63.8131   81.0650   13.1692 N.pl3   1  UNL1       -0.3375
     11 S          63.8841   83.6901   13.6683 S.2     1  UNL1       -0.0519
     12 C          63.4111   84.9194   12.9507 C.ar    1  UNL1        0.0510
     13 C          63.4880   86.3765   13.2982 C.ar    1  UNL1        0.0264
     14 H          63.5377   80.3490   12.5521 H       1  UNL1        0.1442
     15 H          64.2764   80.8404   14.0084 H       1  UNL1        0.1442
     16 C          63.0691   90.3158   13.0597 C.3     1  UNL1        0.1823
     17 C          66.0910   92.9575   11.0253 C.ar    1  UNL1        0.0684
     18 C          64.9336   92.4050   10.2474 C.ar    1  UNL1        0.0100
     19 C          63.9263   91.5244   10.9255 C.ar    1  UNL1       -0.0019
     20 C          64.0764   91.1964   12.3816 C.ar    1  UNL1        0.0018
     21 C          65.2338   91.7489   13.1594 C.ar    1  UNL1       -0.0019
     22 C          66.2411   92.6295   12.4812 C.ar    1  UNL1        0.0100
     23 N          68.1057   94.7187    9.6690 N.1     1  UNL1       -0.1908
     24 C          67.0984   93.8381   10.3472 C.1     1  UNL1        0.1004
@<TRIPOS>BOND
     1    23    24    3
     2    24    17    1
     3    17    18   ar
     4    18    19   ar
     5    19    20   ar
     6    20    16    1
     7    16     1    1
     8     1     2    2
     9     1     3    2
    10     1     4    1
    11     4     5   ar
    12     5     6   ar
    13     6     7   ar
    14     7     8   ar
    15     8     9   ar
    16     9    10    1
    17     9    11   ar
    18    11    12   ar
    19    12    13   ar
    20    20    21   ar
    21    21    22   ar
    22    22    17   ar
    23    13     4   ar
    24    12     7   ar
    25    10    14    1
    26    10    15    1
@<TRIPOS>MOLECULE
*****
 24 26 0 0 0
SMALL
GASTEIGER

@<TRIPOS>ATOM
      1 S          62.9244   89.1308   12.1431 S.O2    1  UNL1        0.0129
      2 O          63.0893   88.9408   13.6218 O.2     1  UNL1       -0.1683
      3 O          62.7595   89.3208   10.6644 O.2     1  UNL1       -0.1683
      4 C          62.8252   87.6449   11.9633 C.ar    1  UNL1        0.1066
      5 C          62.1299   87.0797   10.7604 C.ar    1  UNL1        0.0199
      6 C          62.0306   85.5939   10.5806 C.ar    1  UNL1        0.0210
      7 C          62.6268   84.6732   11.6039 C.ar    1  UNL1        0.0893
      8 N          62.6847   83.1770   11.6952 N.ar    1  UNL1       -0.2245
      9 C          63.4159   82.8176   12.9546 C.ar    1  UNL1        0.1567
     10 N          63.7028   81.4281   13.4417 N.pl3   1  UNL1       -0.3375
     11 S          63.8098   84.0915   13.6416 S.2     1  UNL1       -0.0519
     12 C          63.3221   85.2383   12.8068 C.ar    1  UNL1        0.0510
     13 C          63.4213   86.7242   12.9865 C.ar    1  UNL1        0.0264
     14 H          63.4017   80.6508   12.9177 H       1  UNL1        0.1442
     15 H          64.1922   81.2934   14.2852 H       1  UNL1        0.1442
     16 C          63.0236   90.6166   12.3229 C.3     1  UNL1        0.1823
     17 C          66.7089   92.4180   14.1732 C.ar    1  UNL1        0.0684
     18 C          66.4218   92.6286   12.7160 C.ar    1  UNL1        0.0100
     19 C          65.1934   92.0282   12.0992 C.ar    1  UNL1       -0.0019
     20 C          64.2521   91.2171   12.9397 C.ar    1  UNL1        0.0018
     21 C          64.5392   91.0065   14.3967 C.ar    1  UNL1       -0.0019
     22 C          65.7677   91.6070   15.0135 C.ar    1  UNL1        0.0100
     23 N          69.1658   93.6190   15.4067 N.1     1  UNL1       -0.1908
     24 C          67.9374   93.0185   14.7899 C.1     1  UNL1        0.1004
@<TRIPOS>BOND
     1    23    24    3
     2    24    17    1
     3    17    18   ar
     4    18    19   ar
     5    19    20   ar
     6    20    16    1
     7    16     1    1
     8     1     2    2
     9     1     3    2
    10     1     4    1
    11     4     5   ar
    12     5     6   ar
    13     6     7   ar
    14     7     8   ar
    15     8     9   ar
    16     9    10    1
    17     9    11   ar
    18    11    12   ar
    19    12    13   ar
    20    20    21   ar
    21    21    22   ar
    22    22    17   ar
    23    13     4   ar
    24    12     7   ar
    25    10    14    1
    26    10    15    1
@<TRIPOS>MOLECULE
*****
 24 26 0 0 0
SMALL
GASTEIGER

@<TRIPOS>ATOM
      1 S          63.3136   84.1491   14.9746 S.O2    1  UNL1        0.0129
      2 O          64.7463   83.7636   15.1952 O.2     1  UNL1       -0.1683
      3 O          61.8808   84.5346   14.7540 O.2     1  UNL1       -0.1683
      4 C          63.2886   83.3354   13.7146 C.ar    1  UNL1        0.1066
      5 C          63.5833   83.9861   12.3957 C.ar    1  UNL1        0.0199
      6 C          63.5584   83.1725   11.1358 C.ar    1  UNL1        0.0210
      7 C          63.2388   81.7081   11.1949 C.ar    1  UNL1        0.0893
      8 N          63.1407   80.6583   10.1279 N.ar    1  UNL1       -0.2245
      9 C          62.7853   79.3588   10.7875 C.ar    1  UNL1        0.1567
     10 N          62.5864   78.0436   10.0942 N.pl3   1  UNL1       -0.3375
     11 S          62.6638   79.6055   12.2621 S.2     1  UNL1       -0.0519
     12 C          62.9441   81.0574   12.5139 C.ar    1  UNL1        0.0510
     13 C          62.9690   81.8711   13.7737 C.ar    1  UNL1        0.0264
     14 H          62.6886   77.9818    9.1170 H       1  UNL1        0.1442
     15 H          62.3536   77.2421   10.6165 H       1  UNL1        0.1442
     16 C          63.3385   84.9627   16.2345 C.3     1  UNL1        0.1823
     17 C          63.7491   89.4386   16.0147 C.ar    1  UNL1        0.0684
     18 C          63.0152   88.8081   17.1611 C.ar    1  UNL1        0.0100
     19 C          62.8783   87.3162   17.2343 C.ar    1  UNL1       -0.0019
     20 C          63.4754   86.4547   16.1612 C.ar    1  UNL1        0.0018
     21 C          64.2092   87.0851   15.0150 C.ar    1  UNL1       -0.0019
     22 C          64.3460   88.5771   14.9417 C.ar    1  UNL1        0.0100
     23 N          64.0228   92.4224   15.8682 N.1     1  UNL1       -0.1908
     24 C          63.8859   90.9305   15.9415 C.1     1  UNL1        0.1004
@<TRIPOS>BOND
     1    23    24    3
     2    24    17    1
     3    17    18   ar
     4    18    19   ar
     5    19    20   ar
     6    20    16    1
     7    16     1    1
     8     1     2    2
     9     1     3    2
    10     1     4    1
    11     4     5   ar
    12     5     6   ar
    13     6     7   ar
    14     7     8   ar
    15     8     9   ar
    16     9    10    1
    17     9    11   ar
    18    11    12   ar
    19    12    13   ar
    20    20    21   ar
    21    21    22   ar
    22    22    17   ar
    23    13     4   ar
    24    12     7   ar
    25    10    14    1
    26    10    15    1
@<TRIPOS>MOLECULE
*****
 24 26 0 0 0
SMALL
GASTEIGER

@<TRIPOS>ATOM
      1 S          63.9830   88.7600   14.8818 S.O2    1  UNL1        0.0129
      2 O          63.9458   89.8324   15.9300 O.2     1  UNL1       -0.1683
      3 O          64.0203   87.6876   13.8337 O.2     1  UNL1       -0.1683
      4 C          64.1833   89.8027   13.8222 C.ar    1  UNL1        0.1066
      5 C          63.3626   89.7640   12.5673 C.ar    1  UNL1        0.0199
      6 C          63.5629   90.8066   11.5077 C.ar    1  UNL1        0.0210
      7 C          64.5840   91.8880   11.7031 C.ar    1  UNL1        0.0893
      8 N          65.0010   93.0423   10.8407 N.ar    1  UNL1       -0.2245
      9 C          66.0794   93.7944   11.5627 C.ar    1  UNL1        0.1567
     10 N          66.7846   95.0207   11.0637 N.pl3   1  UNL1       -0.3375
     11 S          66.3289   93.1049   12.8712 S.2     1  UNL1       -0.0519
     12 C          65.4047   91.9267   12.9580 C.ar    1  UNL1        0.0510
     13 C          65.2044   90.8840   14.0176 C.ar    1  UNL1        0.0264
     14 H          66.5495   95.4012   10.1867 H       1  UNL1        0.1442
     15 H          67.4825   95.4451   11.6133 H       1  UNL1        0.1442
     16 C          63.7828   87.7174   15.9415 C.3     1  UNL1        0.1823
     17 C          63.5410   83.3703   14.8036 C.ar    1  UNL1        0.0684
     18 C          64.7358   84.1848   14.4044 C.ar    1  UNL1        0.0100
     19 C          64.8164   85.6338   14.7837 C.ar    1  UNL1       -0.0019
     20 C          63.7022   86.2684   15.5622 C.ar    1  UNL1        0.0018
     21 C          62.5075   85.4539   15.9614 C.ar    1  UNL1       -0.0019
     22 C          62.4269   84.0049   15.5821 C.ar    1  UNL1        0.0100
     23 N          63.3799   80.4723   14.0451 N.1     1  UNL1       -0.1908
     24 C          63.4604   81.9213   14.4244 C.1     1  UNL1        0.1004
@<TRIPOS>BOND
     1    23    24    3
     2    24    17    1
     3    17    18   ar
     4    18    19   ar
     5    19    20   ar
     6    20    16    1
     7    16     1    1
     8     1     2    2
     9     1     3    2
    10     1     4    1
    11     4     5   ar
    12     5     6   ar
    13     6     7   ar
    14     7     8   ar
    15     8     9   ar
    16     9    10    1
    17     9    11   ar
    18    11    12   ar
    19    12    13   ar
    20    20    21   ar
    21    21    22   ar
    22    22    17   ar
    23    13     4   ar
    24    12     7   ar
    25    10    14    1
    26    10    15    1
