@<TRIPOS>MOLECULE
*****
 25 28 0 0 0
SMALL
GASTEIGER

@<TRIPOS>ATOM
      1 C          62.7301   84.8636   11.2990 C.ar    1  UNL1       -0.0163
      2 C          63.4395   85.4206   12.4974 C.ar    1  UNL1       -0.0048
      3 C          63.8103   84.5176   13.6364 C.ar    1  UNL1        0.0164
      4 C          63.4715   83.0576   13.5769 C.ar    1  UNL1        0.1417
      5 O          63.7082   81.9322   14.5399 O.2     1  UNL1       -0.4507
      6 C          63.1451   80.6797   13.9366 C.ar    1  UNL1        0.1796
      7 C          62.5603   81.0309   12.6007 C.ar    1  UNL1        0.0437
      8 C          62.7620   82.5006   12.3784 C.ar    1  UNL1        0.0371
      9 C          62.3913   83.4036   11.2394 C.ar    1  UNL1       -0.0008
     10 C          62.3594   85.7666   10.1600 C.3     1  UNL1        0.0734
     11 O          59.5122   90.9374   11.2355 O.2     1  UNL1       -0.2711
     12 C          60.2240   89.6447   10.9667 C.2     1  UNL1        0.2671
     13 C          61.2758   89.5756    9.8994 C.3     1  UNL1        0.1159
     14 C          61.9876   88.2829    9.6305 C.2     1  UNL1        0.0002
     15 C          61.6476   87.0593   10.4289 C.2     1  UNL1        0.0789
     16 N          60.5958   87.1284   11.4961 N.2     1  UNL1       -0.1605
     17 N          59.8840   88.4212   11.7650 N.am    1  UNL1       -0.0793
     18 C          64.5197   85.0747   14.8349 C.3     1  UNL1        0.0557
     19 C          64.0692   86.3726   15.4370 C.ar    1  UNL1       -0.0168
     20 C          63.2927   86.3744   16.7203 C.ar    1  UNL1       -0.0039
     21 C          62.8421   87.6722   17.3225 C.ar    1  UNL1        0.0006
     22 C          63.1681   88.9683   16.6413 C.ar    1  UNL1        0.0114
     23 C          63.9447   88.9664   15.3580 C.ar    1  UNL1        0.0574
     24 CL         64.2708   90.2625   14.6768 Cl      1  UNL1       -0.0823
     25 C          64.3953   87.6686   14.7558 C.ar    1  UNL1        0.0075
@<TRIPOS>BOND
     1    11    12    2
     2    12    13    1
     3    13    14    1
     4    14    15    2
     5    15    10    1
     6    10     1    1
     7     1     2   ar
     8     2     3   ar
     9     3    18    1
    10    18    19    1
    11    19    20   ar
    12    20    21   ar
    13    21    22   ar
    14    22    23   ar
    15    23    24    1
    16    23    25   ar
    17     3     4   ar
    18     4     5   ar
    19     5     6   ar
    20     6     7   ar
    21     7     8   ar
    22     8     9   ar
    23    15    16    1
    24    16    17    2
    25    17    12    1
    26     9     1   ar
    27    25    19   ar
    28     8     4   ar
@<TRIPOS>MOLECULE
*****
 25 28 0 0 0
SMALL
GASTEIGER

@<TRIPOS>ATOM
      1 C          62.1811   90.4155   11.3448 C.ar    1  UNL1       -0.0163
      2 C          62.5331   90.1381   12.7762 C.ar    1  UNL1       -0.0048
      3 C          63.8029   90.6869   13.3562 C.ar    1  UNL1        0.0164
      4 C          64.7207   91.5131   12.5047 C.ar    1  UNL1        0.1417
      5 O          66.0307   92.1824   12.7980 O.2     1  UNL1       -0.4507
      6 C          66.4882   92.8734   11.5478 C.ar    1  UNL1        0.1796
      7 C          65.4611   92.6312   10.4818 C.ar    1  UNL1        0.0437
      8 C          64.3687   91.7905   11.0732 C.ar    1  UNL1        0.0371
      9 C          63.0988   91.2417   10.4933 C.ar    1  UNL1       -0.0008
     10 C          60.9112   89.8667   10.7647 C.3     1  UNL1        0.0734
     11 O          61.0959   85.1364    7.0781 O.2     1  UNL1       -0.2711
     12 C          61.0497   86.3190    7.9997 C.2     1  UNL1        0.2671
     13 C          62.0711   86.4612    9.0891 C.3     1  UNL1        0.1159
     14 C          62.0249   87.6437   10.0107 C.2     1  UNL1        0.0002
     15 C          60.9574   88.6841    9.8431 C.2     1  UNL1        0.0789
     16 N          59.9361   88.5419    8.7538 N.2     1  UNL1       -0.1605
     17 N          59.9823   87.3593    7.8321 N.am    1  UNL1       -0.0793
     18 C          64.1549   90.4095   14.7877 C.3     1  UNL1        0.0557
     19 C          63.9091   89.0494   15.3705 C.ar    1  UNL1       -0.0168
     20 C          63.1254   88.9086   16.6417 C.ar    1  UNL1       -0.0039
     21 C          62.8795   87.5485   17.2245 C.ar    1  UNL1        0.0006
     22 C          63.4174   86.3292   16.5361 C.ar    1  UNL1        0.0114
     23 C          64.2011   86.4699   15.2649 C.ar    1  UNL1        0.0574
     24 CL         64.7389   85.2506   14.5764 Cl      1  UNL1       -0.0823
     25 C          64.4470   87.8300   14.6821 C.ar    1  UNL1        0.0075
@<TRIPOS>BOND
     1    11    12    2
     2    12    13    1
     3    13    14    1
     4    14    15    2
     5    15    10    1
     6    10     1    1
     7     1     2   ar
     8     2     3   ar
     9     3    18    1
    10    18    19    1
    11    19    20   ar
    12    20    21   ar
    13    21    22   ar
    14    22    23   ar
    15    23    24    1
    16    23    25   ar
    17     3     4   ar
    18     4     5   ar
    19     5     6   ar
    20     6     7   ar
    21     7     8   ar
    22     8     9   ar
    23    15    16    1
    24    16    17    2
    25    17    12    1
    26     9     1   ar
    27    25    19   ar
    28     8     4   ar
@<TRIPOS>MOLECULE
*****
 25 28 0 0 0
SMALL
GASTEIGER

@<TRIPOS>ATOM
      1 C          63.5405   84.6306   14.7583 C.ar    1  UNL1       -0.0163
      2 C          63.4264   85.1750   13.3654 C.ar    1  UNL1       -0.0048
      3 C          63.1396   84.2502   12.2197 C.ar    1  UNL1        0.0164
      4 C          62.9669   82.7809   12.4672 C.ar    1  UNL1        0.1417
      5 O          62.6794   81.6345   11.5435 O.2     1  UNL1       -0.4507
      6 C          62.6158   80.3815   12.3657 C.ar    1  UNL1        0.1796
      7 C          62.8641   80.7535   13.7975 C.ar    1  UNL1        0.0437
      8 C          63.0811   82.2364   13.8602 C.ar    1  UNL1        0.0371
      9 C          63.3679   83.1613   15.0058 C.ar    1  UNL1       -0.0008
     10 C          63.8273   85.5555   15.9040 C.3     1  UNL1        0.0734
     11 O          63.4915   91.4947   15.1212 O.2     1  UNL1       -0.2711
     12 C          63.5754   90.0099   15.3169 C.2     1  UNL1        0.2671
     13 C          64.4412   89.1822   14.4138 C.3     1  UNL1        0.1159
     14 C          64.5251   87.6974   14.6095 C.2     1  UNL1        0.0002
     15 C          63.7434   87.0403   15.7082 C.2     1  UNL1        0.0789
     16 N          62.8777   87.8680   16.6112 N.2     1  UNL1       -0.1605
     17 N          62.7937   89.3529   16.4155 N.am    1  UNL1       -0.0793
     18 C          63.0255   84.7947   10.8266 C.3     1  UNL1        0.0557
     19 C          62.1556   85.9863   10.5561 C.ar    1  UNL1       -0.0168
     20 C          62.3767   87.2632   11.3116 C.ar    1  UNL1       -0.0039
     21 C          61.5068   88.4549   11.0411 C.ar    1  UNL1        0.0006
     22 C          60.4158   88.3697   10.0152 C.ar    1  UNL1        0.0114
     23 C          60.1947   87.0928    9.2598 C.ar    1  UNL1        0.0574
     24 CL         59.1037   87.0076    8.2339 Cl      1  UNL1       -0.0823
     25 C          61.0646   85.9011    9.5302 C.ar    1  UNL1        0.0075
@<TRIPOS>BOND
     1    11    12    2
     2    12    13    1
     3    13    14    1
     4    14    15    2
     5    15    10    1
     6    10     1    1
     7     1     2   ar
     8     2     3   ar
     9     3    18    1
    10    18    19    1
    11    19    20   ar
    12    20    21   ar
    13    21    22   ar
    14    22    23   ar
    15    23    24    1
    16    23    25   ar
    17     3     4   ar
    18     4     5   ar
    19     5     6   ar
    20     6     7   ar
    21     7     8   ar
    22     8     9   ar
    23    15    16    1
    24    16    17    2
    25    17    12    1
    26     9     1   ar
    27    25    19   ar
    28     8     4   ar
@<TRIPOS>MOLECULE
*****
 25 28 0 0 0
SMALL
GASTEIGER

@<TRIPOS>ATOM
      1 C          61.6045   88.8862   11.2868 C.ar    1  UNL1       -0.0163
      2 C          62.3498   87.5849   11.3151 C.ar    1  UNL1       -0.0048
      3 C          62.0427   86.5225   10.3016 C.ar    1  UNL1        0.0164
      4 C          60.9903   86.7616    9.2598 C.ar    1  UNL1        0.1417
      5 O          60.4741   85.9074    8.1401 O.2     1  UNL1       -0.4507
      6 C          59.4098   86.6809    7.4198 C.ar    1  UNL1        0.1796
      7 C          59.2682   88.0131    8.0943 C.ar    1  UNL1        0.0437
      8 C          60.2450   88.0630    9.2316 C.ar    1  UNL1        0.0371
      9 C          60.5521   89.1253   10.2450 C.ar    1  UNL1       -0.0008
     10 C          61.9116   89.9487   12.3003 C.3     1  UNL1        0.0734
     11 O          66.7035   93.4868   11.5794 O.2     1  UNL1       -0.2711
     12 C          65.5055   92.6023   11.7597 C.2     1  UNL1        0.2671
     13 C          64.7482   92.1120   10.5612 C.3     1  UNL1        0.1159
     14 C          63.5502   91.2274   10.7415 C.2     1  UNL1        0.0002
     15 C          63.1095   90.8332   12.1200 C.2     1  UNL1        0.0789
     16 N          63.8669   91.3235   13.3184 N.2     1  UNL1       -0.1605
     17 N          65.0649   92.2080   13.1381 N.am    1  UNL1       -0.0793
     18 C          62.7881   85.2211   10.3299 C.3     1  UNL1        0.0557
     19 C          62.7422   84.3570   11.5551 C.ar    1  UNL1       -0.0168
     20 C          62.6958   84.9869   12.9157 C.ar    1  UNL1       -0.0039
     21 C          62.6499   84.1229   14.1410 C.ar    1  UNL1        0.0006
     22 C          62.6503   82.6290   14.0057 C.ar    1  UNL1        0.0114
     23 C          62.6967   81.9991   12.6452 C.ar    1  UNL1        0.0574
     24 CL         62.6972   80.5052   12.5099 Cl      1  UNL1       -0.0823
     25 C          62.7426   82.8631   11.4199 C.ar    1  UNL1        0.0075
@<TRIPOS>BOND
     1    11    12    2
     2    12    13    1
     3    13    14    1
     4    14    15    2
     5    15    10    1
     6    10     1    1
     7     1     2   ar
     8     2     3   ar
     9     3    18    1
    10    18    19    1
    11    19    20   ar
    12    20    21   ar
    13    21    22   ar
    14    22    23   ar
    15    23    24    1
    16    23    25   ar
    17     3     4   ar
    18     4     5   ar
    19     5     6   ar
    20     6     7   ar
    21     7     8   ar
    22     8     9   ar
    23    15    16    1
    24    16    17    2
    25    17    12    1
    26     9     1   ar
    27    25    19   ar
    28     8     4   ar
@<TRIPOS>MOLECULE
*****
 25 28 0 0 0
SMALL
GASTEIGER

@<TRIPOS>ATOM
      1 C          62.5735   86.3096   11.5966 C.ar    1  UNL1       -0.0163
      2 C          62.5627   87.7991   11.7729 C.ar    1  UNL1       -0.0048
      3 C          61.7566   88.6585   10.8446 C.ar    1  UNL1        0.0164
      4 C          60.9613   88.0282    9.7400 C.ar    1  UNL1        0.1417
      5 O          60.0786   88.6143    8.6782 O.2     1  UNL1       -0.4507
      6 C          59.5439   87.4870    7.8457 C.ar    1  UNL1        0.1796
      7 C          60.0960   86.2041    8.3929 C.ar    1  UNL1        0.0437
      8 C          60.9721   86.5386    9.5637 C.ar    1  UNL1        0.0371
      9 C          61.7782   85.6794   10.4920 C.ar    1  UNL1       -0.0008
     10 C          63.3796   85.4502   12.5250 C.3     1  UNL1        0.0734
     11 O          61.8667   79.7056   13.3679 O.2     1  UNL1       -0.2711
     12 C          62.2449   81.1418   13.1572 C.2     1  UNL1        0.2671
     13 C          62.8637   81.5718   11.8602 C.3     1  UNL1        0.1159
     14 C          63.2419   83.0079   11.6494 C.2     1  UNL1        0.0002
     15 C          63.0014   84.0141   12.7357 C.2     1  UNL1        0.0789
     16 N          62.3826   83.5840   14.0326 N.2     1  UNL1       -0.1605
     17 N          62.0044   82.1478   14.2434 N.am    1  UNL1       -0.0793
     18 C          61.7459   90.1481   11.0210 C.3     1  UNL1        0.0557
     19 C          63.0066   90.8677   11.3988 C.ar    1  UNL1       -0.0168
     20 C          63.7725   91.6338   10.3612 C.ar    1  UNL1       -0.0039
     21 C          65.0332   92.3534   10.7389 C.ar    1  UNL1        0.0006
     22 C          65.5280   92.3070   12.1541 C.ar    1  UNL1        0.0114
     23 C          64.7621   91.5409   13.1917 C.ar    1  UNL1        0.0574
     24 CL         65.2569   91.4944   14.6070 Cl      1  UNL1       -0.0823
     25 C          63.5014   90.8212   12.8140 C.ar    1  UNL1        0.0075
@<TRIPOS>BOND
     1    11    12    2
     2    12    13    1
     3    13    14    1
     4    14    15    2
     5    15    10    1
     6    10     1    1
     7     1     2   ar
     8     2     3   ar
     9     3    18    1
    10    18    19    1
    11    19    20   ar
    12    20    21   ar
    13    21    22   ar
    14    22    23   ar
    15    23    24    1
    16    23    25   ar
    17     3     4   ar
    18     4     5   ar
    19     5     6   ar
    20     6     7   ar
    21     7     8   ar
    22     8     9   ar
    23    15    16    1
    24    16    17    2
    25    17    12    1
    26     9     1   ar
    27    25    19   ar
    28     8     4   ar
@<TRIPOS>MOLECULE
*****
 25 28 0 0 0
SMALL
GASTEIGER

@<TRIPOS>ATOM
      1 C          62.3661   86.1599   11.1311 C.ar    1  UNL1       -0.0163
      2 C          62.4129   87.6414   11.3610 C.ar    1  UNL1       -0.0048
      3 C          61.6314   88.5633   10.4725 C.ar    1  UNL1        0.0164
      4 C          60.8031   88.0036    9.3541 C.ar    1  UNL1        0.1417
      5 O          59.9337   88.6603    8.3232 O.2     1  UNL1       -0.4507
      6 C          59.3496   87.5846    7.4562 C.ar    1  UNL1        0.1796
      7 C          59.8581   86.2631    7.9513 C.ar    1  UNL1        0.0437
      8 C          60.7564   86.5220    9.1243 C.ar    1  UNL1        0.0371
      9 C          61.5379   85.6002   10.0128 C.ar    1  UNL1       -0.0008
     10 C          63.1476   85.2380   12.0196 C.3     1  UNL1        0.0734
     11 O          63.1522   86.0856   17.9595 O.2     1  UNL1       -0.2711
     12 C          63.1510   85.8737   16.4745 C.2     1  UNL1        0.2671
     13 C          64.1791   86.5532   15.6192 C.3     1  UNL1        0.1159
     14 C          64.1779   86.3413   14.1343 C.2     1  UNL1        0.0002
     15 C          63.1488   85.4499   13.5046 C.2     1  UNL1        0.0789
     16 N          62.1208   84.7704   14.3599 N.2     1  UNL1       -0.1605
     17 N          62.1220   84.9824   15.8450 N.am    1  UNL1       -0.0793
     18 C          61.6782   90.0449   10.7024 C.3     1  UNL1        0.0557
     19 C          62.8861   90.6675   11.3372 C.ar    1  UNL1       -0.0168
     20 C          63.1987   90.3976   12.7792 C.ar    1  UNL1       -0.0039
     21 C          64.4066   91.0202   13.4142 C.ar    1  UNL1        0.0006
     22 C          65.3020   91.9128   12.6071 C.ar    1  UNL1        0.0114
     23 C          64.9895   92.1828   11.1650 C.ar    1  UNL1        0.0574
     24 CL         65.8849   93.0754   10.3579 Cl      1  UNL1       -0.0823
     25 C          63.7815   91.5601   10.5301 C.ar    1  UNL1        0.0075
@<TRIPOS>BOND
     1    11    12    2
     2    12    13    1
     3    13    14    1
     4    14    15    2
     5    15    10    1
     6    10     1    1
     7     1     2   ar
     8     2     3   ar
     9     3    18    1
    10    18    19    1
    11    19    20   ar
    12    20    21   ar
    13    21    22   ar
    14    22    23   ar
    15    23    24    1
    16    23    25   ar
    17     3     4   ar
    18     4     5   ar
    19     5     6   ar
    20     6     7   ar
    21     7     8   ar
    22     8     9   ar
    23    15    16    1
    24    16    17    2
    25    17    12    1
    26     9     1   ar
    27    25    19   ar
    28     8     4   ar
@<TRIPOS>MOLECULE
*****
 25 28 0 0 0
SMALL
GASTEIGER

@<TRIPOS>ATOM
      1 C          62.1602   86.2631   10.6607 C.ar    1  UNL1       -0.0163
      2 C          62.4456   87.7167   10.8962 C.ar    1  UNL1       -0.0048
      3 C          61.7059   88.7623   10.1153 C.ar    1  UNL1        0.0164
      4 C          60.6809   88.3542    9.0991 C.ar    1  UNL1        0.1417
      5 O          59.8002   89.1535    8.1851 O.2     1  UNL1       -0.4507
      6 C          58.9705   88.1937    7.3848 C.ar    1  UNL1        0.1796
      7 C          59.3384   86.8013    7.8041 C.ar    1  UNL1        0.0437
      8 C          60.3956   86.9005    8.8637 C.ar    1  UNL1        0.0371
      9 C          61.1352   85.8550    9.6445 C.ar    1  UNL1       -0.0008
     10 C          62.8999   85.2174   11.4416 C.3     1  UNL1        0.0734
     11 O          63.5019   85.7783   17.3849 O.2     1  UNL1       -0.2711
     12 C          63.3514   85.6381   15.8991 C.2     1  UNL1        0.2671
     13 C          62.7106   84.4104   15.3227 C.3     1  UNL1        0.1159
     14 C          62.5601   84.2702   13.8369 C.2     1  UNL1        0.0002
     15 C          63.0504   85.3576   12.9274 C.2     1  UNL1        0.0789
     16 N          63.6912   86.5853   13.5038 N.2     1  UNL1       -0.1605
     17 N          63.8417   86.7255   14.9897 N.am    1  UNL1       -0.0793
     18 C          61.9914   90.2160   10.3508 C.3     1  UNL1        0.0557
     19 C          62.9976   90.6247   11.3854 C.ar    1  UNL1       -0.0168
     20 C          64.1215   91.5467   11.0153 C.ar    1  UNL1       -0.0039
     21 C          65.1277   91.9555   12.0499 C.ar    1  UNL1        0.0006
     22 C          65.0101   91.4424   13.4544 C.ar    1  UNL1        0.0114
     23 C          63.8863   90.5204   13.8245 C.ar    1  UNL1        0.0574
     24 CL         63.7687   90.0073   15.2290 Cl      1  UNL1       -0.0823
     25 C          62.8800   90.1116   12.7899 C.ar    1  UNL1        0.0075
@<TRIPOS>BOND
     1    11    12    2
     2    12    13    1
     3    13    14    1
     4    14    15    2
     5    15    10    1
     6    10     1    1
     7     1     2   ar
     8     2     3   ar
     9     3    18    1
    10    18    19    1
    11    19    20   ar
    12    20    21   ar
    13    21    22   ar
    14    22    23   ar
    15    23    24    1
    16    23    25   ar
    17     3     4   ar
    18     4     5   ar
    19     5     6   ar
    20     6     7   ar
    21     7     8   ar
    22     8     9   ar
    23    15    16    1
    24    16    17    2
    25    17    12    1
    26     9     1   ar
    27    25    19   ar
    28     8     4   ar
@<TRIPOS>MOLECULE
*****
 25 28 0 0 0
SMALL
GASTEIGER

@<TRIPOS>ATOM
      1 C          63.8261   88.9768   13.7361 C.ar    1  UNL1       -0.0163
      2 C          63.2037   88.3892   12.5044 C.ar    1  UNL1       -0.0048
      3 C          63.1305   86.9001   12.3383 C.ar    1  UNL1        0.0164
      4 C          63.6798   85.9988   13.4041 C.ar    1  UNL1        0.1417
      5 O          63.7489   84.5047   13.5175 O.2     1  UNL1       -0.4507
      6 C          64.4141   84.1690   14.8194 C.ar    1  UNL1        0.1796
      7 C          64.7560   85.4556   15.5106 C.ar    1  UNL1        0.0437
      8 C          64.3022   86.5865   14.6359 C.ar    1  UNL1        0.0371
      9 C          64.3754   88.0755   14.8019 C.ar    1  UNL1       -0.0008
     10 C          63.8992   90.4658   13.9021 C.3     1  UNL1        0.0734
     11 O          67.5717   93.6950   10.4256 O.2     1  UNL1       -0.2711
     12 C          66.6536   92.8877   11.2948 C.2     1  UNL1        0.2671
     13 C          65.2984   92.4906   10.7888 C.3     1  UNL1        0.1159
     14 C          64.3804   91.6833   11.6579 C.2     1  UNL1        0.0002
     15 C          64.8173   91.2731   13.0330 C.2     1  UNL1        0.0789
     16 N          66.1724   91.6702   13.5389 N.2     1  UNL1       -0.1605
     17 N          67.0906   92.4775   12.6697 N.am    1  UNL1       -0.0793
     18 C          62.5081   86.3125   11.1065 C.3     1  UNL1        0.0557
     19 C          61.6611   87.1690   10.2127 C.ar    1  UNL1       -0.0168
     20 C          61.8366   88.6586   10.2153 C.ar    1  UNL1       -0.0039
     21 C          60.9896   89.5152    9.3214 C.ar    1  UNL1        0.0006
     22 C          59.9671   88.8820    8.4251 C.ar    1  UNL1        0.0114
     23 C          59.7915   87.3923    8.4225 C.ar    1  UNL1        0.0574
     24 CL         58.7690   86.7592    7.5261 Cl      1  UNL1       -0.0823
     25 C          60.6385   86.5358    9.3163 C.ar    1  UNL1        0.0075
@<TRIPOS>BOND
     1    11    12    2
     2    12    13    1
     3    13    14    1
     4    14    15    2
     5    15    10    1
     6    10     1    1
     7     1     2   ar
     8     2     3   ar
     9     3    18    1
    10    18    19    1
    11    19    20   ar
    12    20    21   ar
    13    21    22   ar
    14    22    23   ar
    15    23    24    1
    16    23    25   ar
    17     3     4   ar
    18     4     5   ar
    19     5     6   ar
    20     6     7   ar
    21     7     8   ar
    22     8     9   ar
    23    15    16    1
    24    16    17    2
    25    17    12    1
    26     9     1   ar
    27    25    19   ar
    28     8     4   ar
@<TRIPOS>MOLECULE
*****
 25 28 0 0 0
SMALL
GASTEIGER

@<TRIPOS>ATOM
      1 C          63.8515   89.3418   13.5831 C.ar    1  UNL1       -0.0163
      2 C          63.2286   88.6764   12.3919 C.ar    1  UNL1       -0.0048
      3 C          63.1206   87.1811   12.3391 C.ar    1  UNL1        0.0164
      4 C          63.6357   86.3514   13.4776 C.ar    1  UNL1        0.1417
      5 O          63.6667   84.8692   13.7057 O.2     1  UNL1       -0.4507
      6 C          64.3089   84.6186   15.0379 C.ar    1  UNL1        0.1796
      7 C          64.6747   85.9459   15.6332 C.ar    1  UNL1        0.0437
      8 C          64.2586   87.0169   14.6689 C.ar    1  UNL1        0.0371
      9 C          64.3665   88.5121   14.7216 C.ar    1  UNL1       -0.0008
     10 C          63.9594   90.8370   13.6359 C.3     1  UNL1        0.0734
     11 O          68.7512   93.4111   16.1682 O.2     1  UNL1       -0.2711
     12 C          67.5533   92.7676   15.5352 C.2     1  UNL1        0.2671
     13 C          67.6456   92.2176   14.1426 C.3     1  UNL1        0.1159
     14 C          66.4476   91.5741   13.5096 C.2     1  UNL1        0.0002
     15 C          65.1574   91.4805   14.2690 C.2     1  UNL1        0.0789
     16 N          65.0652   92.0305   15.6614 N.2     1  UNL1       -0.1605
     17 N          66.2632   92.6740   16.2945 N.am    1  UNL1       -0.0793
     18 C          62.4976   86.5158   11.1478 C.3     1  UNL1        0.0557
     19 C          61.6292   87.3073   10.2155 C.ar    1  UNL1       -0.0168
     20 C          61.7364   88.8030   10.1790 C.ar    1  UNL1       -0.0039
     21 C          60.8680   89.5947    9.2467 C.ar    1  UNL1        0.0006
     22 C          59.8925   88.8906    8.3509 C.ar    1  UNL1        0.0114
     23 C          59.7853   87.3949    8.3874 C.ar    1  UNL1        0.0574
     24 CL         58.8097   86.6908    7.4915 Cl      1  UNL1       -0.0823
     25 C          60.6537   86.6032    9.3196 C.ar    1  UNL1        0.0075
@<TRIPOS>BOND
     1    11    12    2
     2    12    13    1
     3    13    14    1
     4    14    15    2
     5    15    10    1
     6    10     1    1
     7     1     2   ar
     8     2     3   ar
     9     3    18    1
    10    18    19    1
    11    19    20   ar
    12    20    21   ar
    13    21    22   ar
    14    22    23   ar
    15    23    24    1
    16    23    25   ar
    17     3     4   ar
    18     4     5   ar
    19     5     6   ar
    20     6     7   ar
    21     7     8   ar
    22     8     9   ar
    23    15    16    1
    24    16    17    2
    25    17    12    1
    26     9     1   ar
    27    25    19   ar
    28     8     4   ar
