@<TRIPOS>MOLECULE
*****
 29 32 0 0 0
SMALL
GASTEIGER

@<TRIPOS>ATOM
      1 C          63.8608   89.1836   15.5000 C.3     1  UNL1        0.0294
      2 C          63.9334   90.5873   14.9760 C.3     1  UNL1        0.0666
      3 S          64.2273   90.8322   13.5256 S.3     1  UNL1       -0.0756
      4 C          66.1672   93.7094   11.7869 C.ar    1  UNL1        0.2029
      5 N          66.6357   93.8589   13.2041 N.ar    1  UNL1       -0.1250
      6 N          65.9660   92.7993   14.0278 N.ar    1  UNL1       -0.1220
      7 C          65.0836   91.9949   13.1199 C.ar    1  UNL1        0.1933
      8 N          65.2080   92.5574   11.7349 N.ar    1  UNL1       -0.2860
      9 C          64.4979   92.0559   10.5125 C.3     1  UNL1        0.1341
     10 C          68.1868   92.8206    9.3825 C.3     1  UNL1        0.0556
     11 C          67.5130   94.1537    9.5205 C.ar    1  UNL1        0.1001
     12 N          67.6492   95.3122    8.5775 N.ar    1  UNL1       -0.2085
     13 C          66.8050   96.4368    9.1000 C.ar    1  UNL1        0.2849
     14 O          66.1472   95.9733   10.3658 O.2     1  UNL1       -0.4283
     15 C          66.5847   94.5622   10.6257 C.ar    1  UNL1        0.1964
     16 C          64.3016   88.0377   14.6383 C.3     1  UNL1        0.0732
     17 N          63.8048   86.6511   14.9225 N.3     1  UNL1       -0.2682
     18 C          63.3364   86.2901   16.3010 C.3     1  UNL1        0.1046
     19 C          62.8396   84.9036   16.5851 C.3     1  UNL1        0.1598
     20 O          62.8112   83.8781   15.4908 O.3     1  UNL1       -0.3489
     21 C          63.2795   84.2392   14.1123 C.3     1  UNL1        0.1534
     22 C          63.7763   85.6257   13.8282 C.3     1  UNL1        0.1067
     23 C          63.2510   83.2137   13.0179 C.ar    1  UNL1        0.0060
     24 C          62.6549   81.8611   13.2729 C.ar    1  UNL1        0.0004
     25 C          62.6264   80.8356   12.1785 C.ar    1  UNL1        0.0294
     26 C          63.1941   81.1628   10.8292 C.ar    1  UNL1        0.1401
     27 F          63.1656   80.1373    9.7349 F       1  UNL1       -0.2042
     28 C          63.7902   82.5154   10.5743 C.ar    1  UNL1        0.0294
     29 C          63.8187   83.5408   11.6686 C.ar    1  UNL1        0.0004
@<TRIPOS>BOND
     1    10    11    1
     2    11    12   ar
     3    12    13   ar
     4    13    14   ar
     5    14    15   ar
     6    15     4    1
     7     4     5   ar
     8     5     6   ar
     9     6     7   ar
    10     7     3    1
    11     3     2    1
    12     2     1    1
    13     1    16    1
    14    16    17    1
    15    17    18    1
    16    18    19    1
    17    19    20    1
    18    20    21    1
    19    21    23    1
    20    23    24   ar
    21    24    25   ar
    22    25    26   ar
    23    26    27    1
    24    26    28   ar
    25    28    29   ar
    26    21    22    1
    27     7     8   ar
    28     8     9    1
    29    15    11   ar
    30     8     4   ar
    31    22    17    1
    32    29    23   ar
@<TRIPOS>MOLECULE
*****
 29 32 0 0 0
SMALL
GASTEIGER

@<TRIPOS>ATOM
      1 C          63.5997   89.1132   15.4722 C.3     1  UNL1        0.0294
      2 C          63.7254   90.6053   15.3827 C.3     1  UNL1        0.0666
      3 S          64.9942   91.2217   14.8726 S.3     1  UNL1       -0.0756
      4 C          65.6577   93.0827   11.5317 C.ar    1  UNL1        0.2029
      5 N          64.6658   92.0460   11.0940 N.ar    1  UNL1       -0.1250
      6 N          64.2966   91.2227   12.2923 N.ar    1  UNL1       -0.1220
      7 C          65.0602   91.7506   13.4705 C.ar    1  UNL1        0.1933
      8 N          65.9014   92.9001   13.0004 N.ar    1  UNL1       -0.2860
      9 C          66.8243   93.7226   13.8499 C.3     1  UNL1        0.1341
     10 C          68.1279   92.5870    9.4574 C.3     1  UNL1        0.0556
     11 C          67.4295   93.8919    9.7011 C.ar    1  UNL1        0.1001
     12 N          67.7440   95.1982    9.0342 N.ar    1  UNL1       -0.2085
     13 C          66.8029   96.2334    9.5755 C.ar    1  UNL1        0.2849
     14 O          65.9068   95.5669   10.5769 O.2     1  UNL1       -0.4283
     15 C          66.2941   94.1198   10.6546 C.ar    1  UNL1        0.1964
     16 C          64.3888   88.2370   14.5451 C.3     1  UNL1        0.0732
     17 N          63.6840   87.4249   13.4992 N.3     1  UNL1       -0.2682
     18 C          63.1070   88.0984   12.2895 C.3     1  UNL1        0.1046
     19 C          62.4022   87.2863   11.2437 C.3     1  UNL1        0.1598
     20 O          62.2745   85.8007   11.4076 O.3     1  UNL1       -0.3489
     21 C          62.8515   85.1273   12.6173 C.3     1  UNL1        0.1534
     22 C          63.5563   85.9394   13.6631 C.3     1  UNL1        0.1067
     23 C          62.7238   83.6418   12.7812 C.ar    1  UNL1        0.0060
     24 C          62.9965   82.7328   11.6196 C.ar    1  UNL1        0.0004
     25 C          62.8688   81.2473   11.7835 C.ar    1  UNL1        0.0294
     26 C          62.4683   80.6707   13.1090 C.ar    1  UNL1        0.1401
     27 F          62.3406   79.1851   13.2729 F       1  UNL1       -0.2042
     28 C          62.1956   81.5796   14.2706 C.ar    1  UNL1        0.0294
     29 C          62.3233   83.0651   14.1067 C.ar    1  UNL1        0.0004
@<TRIPOS>BOND
     1    10    11    1
     2    11    12   ar
     3    12    13   ar
     4    13    14   ar
     5    14    15   ar
     6    15     4    1
     7     4     5   ar
     8     5     6   ar
     9     6     7   ar
    10     7     3    1
    11     3     2    1
    12     2     1    1
    13     1    16    1
    14    16    17    1
    15    17    18    1
    16    18    19    1
    17    19    20    1
    18    20    21    1
    19    21    23    1
    20    23    24   ar
    21    24    25   ar
    22    25    26   ar
    23    26    27    1
    24    26    28   ar
    25    28    29   ar
    26    21    22    1
    27     7     8   ar
    28     8     9    1
    29    15    11   ar
    30     8     4   ar
    31    22    17    1
    32    29    23   ar
@<TRIPOS>MOLECULE
*****
 29 32 0 0 0
SMALL
GASTEIGER

@<TRIPOS>ATOM
      1 C          64.6868   88.1521   14.5782 C.3     1  UNL1        0.0294
      2 C          63.7540   89.2998   14.8284 C.3     1  UNL1        0.0666
      3 S          63.4165   90.2482   13.7163 S.3     1  UNL1       -0.0756
      4 C          65.6040   93.0308   12.1235 C.ar    1  UNL1        0.2029
      5 N          65.9983   93.1425   13.5666 N.ar    1  UNL1       -0.1250
      6 N          65.2268   92.1137   14.3388 N.ar    1  UNL1       -0.1220
      7 C          64.3558   91.3662   13.3731 C.ar    1  UNL1        0.1933
      8 N          64.5889   91.9330   12.0040 N.ar    1  UNL1       -0.2860
      9 C          63.9238   91.4813   10.7377 C.3     1  UNL1        0.1341
     10 C          67.9040   92.1431    9.9854 C.3     1  UNL1        0.0556
     11 C          67.1894   93.4616   10.0150 C.ar    1  UNL1        0.1001
     12 N          67.4065   94.6036    9.0670 N.ar    1  UNL1       -0.2085
     13 C          66.4835   95.7174    9.4639 C.ar    1  UNL1        0.2849
     14 O          65.6959   95.2638   10.6572 O.2     1  UNL1       -0.4283
     15 C          66.1322   93.8697   10.9978 C.ar    1  UNL1        0.1964
     16 C          64.2431   86.7485   14.8662 C.3     1  UNL1        0.0732
     17 N          63.7913   85.8598   13.7454 N.3     1  UNL1       -0.2682
     18 C          64.1723   84.4091   13.7383 C.3     1  UNL1        0.1046
     19 C          63.7205   83.5205   12.6175 C.3     1  UNL1        0.1598
     20 O          62.8877   84.0826   11.5038 O.3     1  UNL1       -0.3489
     21 C          62.5067   85.5334   11.5109 C.3     1  UNL1        0.1534
     22 C          62.9585   86.4220   12.6317 C.3     1  UNL1        0.1067
     23 C          61.6738   86.0955   10.3971 C.ar    1  UNL1        0.0060
     24 C          60.6732   87.1763   10.6808 C.ar    1  UNL1        0.0004
     25 C          59.8403   87.7385    9.5671 C.ar    1  UNL1        0.0294
     26 C          60.0082   87.2198    8.1697 C.ar    1  UNL1        0.1401
     27 F          59.1753   87.7820    7.0560 F       1  UNL1       -0.2042
     28 C          61.0088   86.1390    7.8860 C.ar    1  UNL1        0.0294
     29 C          61.8417   85.5769    8.9997 C.ar    1  UNL1        0.0004
@<TRIPOS>BOND
     1    10    11    1
     2    11    12   ar
     3    12    13   ar
     4    13    14   ar
     5    14    15   ar
     6    15     4    1
     7     4     5   ar
     8     5     6   ar
     9     6     7   ar
    10     7     3    1
    11     3     2    1
    12     2     1    1
    13     1    16    1
    14    16    17    1
    15    17    18    1
    16    18    19    1
    17    19    20    1
    18    20    21    1
    19    21    23    1
    20    23    24   ar
    21    24    25   ar
    22    25    26   ar
    23    26    27    1
    24    26    28   ar
    25    28    29   ar
    26    21    22    1
    27     7     8   ar
    28     8     9    1
    29    15    11   ar
    30     8     4   ar
    31    22    17    1
    32    29    23   ar
@<TRIPOS>MOLECULE
*****
 29 32 0 0 0
SMALL
GASTEIGER

@<TRIPOS>ATOM
      1 C          61.8528   90.2063   12.2477 C.3     1  UNL1        0.0294
      2 C          63.3472   90.1229   12.3482 C.3     1  UNL1        0.0666
      3 S          64.0671   90.8531   13.4429 S.3     1  UNL1       -0.0756
      4 C          66.1864   93.7008   11.8731 C.ar    1  UNL1        0.2029
      5 N          66.6022   93.7892   13.3116 N.ar    1  UNL1       -0.1250
      6 N          65.8590   92.7332   14.0747 N.ar    1  UNL1       -0.1220
      7 C          64.9838   91.9921   13.1079 C.ar    1  UNL1        0.1933
      8 N          65.1861   92.5902   11.7472 N.ar    1  UNL1       -0.2860
      9 C          64.5073   92.1541   10.4826 C.3     1  UNL1        0.1341
     10 C          68.0702   92.7407    9.3873 C.3     1  UNL1        0.0556
     11 C          67.5494   94.1290    9.6139 C.ar    1  UNL1        0.1001
     12 N          67.8031   95.3198    8.7377 N.ar    1  UNL1       -0.2085
     13 C          67.0939   96.4971    9.3389 C.ar    1  UNL1        0.2849
     14 O          66.4020   96.0339   10.5865 O.2     1  UNL1       -0.4283
     15 C          66.6835   94.5704   10.7565 C.ar    1  UNL1        0.1964
     16 C          61.1820   90.0677   10.9132 C.3     1  UNL1        0.0732
     17 N          61.1083   88.7259   10.2466 N.3     1  UNL1       -0.2682
     18 C          60.2515   88.5390    9.0297 C.3     1  UNL1        0.1046
     19 C          60.1778   87.1973    8.3632 C.3     1  UNL1        0.1598
     20 O          60.9610   86.0424    8.9135 O.3     1  UNL1       -0.3489
     21 C          61.8179   86.2293   10.1304 C.3     1  UNL1        0.1534
     22 C          61.8915   87.5710   10.7970 C.3     1  UNL1        0.1067
     23 C          62.6011   85.0744   10.6808 C.ar    1  UNL1        0.0060
     24 C          63.4102   84.2102    9.7598 C.ar    1  UNL1        0.0004
     25 C          64.1934   83.0553   10.3102 C.ar    1  UNL1        0.0294
     26 C          64.1674   82.7647   11.7815 C.ar    1  UNL1        0.1401
     27 F          64.9506   81.6098   12.3318 F       1  UNL1       -0.2042
     28 C          63.3583   83.6289   12.7025 C.ar    1  UNL1        0.0294
     29 C          62.5751   84.7838   12.1521 C.ar    1  UNL1        0.0004
@<TRIPOS>BOND
     1    10    11    1
     2    11    12   ar
     3    12    13   ar
     4    13    14   ar
     5    14    15   ar
     6    15     4    1
     7     4     5   ar
     8     5     6   ar
     9     6     7   ar
    10     7     3    1
    11     3     2    1
    12     2     1    1
    13     1    16    1
    14    16    17    1
    15    17    18    1
    16    18    19    1
    17    19    20    1
    18    20    21    1
    19    21    23    1
    20    23    24   ar
    21    24    25   ar
    22    25    26   ar
    23    26    27    1
    24    26    28   ar
    25    28    29   ar
    26    21    22    1
    27     7     8   ar
    28     8     9    1
    29    15    11   ar
    30     8     4   ar
    31    22    17    1
    32    29    23   ar
@<TRIPOS>MOLECULE
*****
 29 32 0 0 0
SMALL
GASTEIGER

@<TRIPOS>ATOM
      1 C          63.7169   89.5114   13.1281 C.3     1  UNL1        0.0294
      2 C          63.9801   90.7908   13.8657 C.3     1  UNL1        0.0666
      3 S          65.3820   91.3092   13.9913 S.3     1  UNL1       -0.0756
      4 C          66.0889   94.4241   11.7861 C.ar    1  UNL1        0.2029
      5 N          66.5399   94.9125   13.1308 N.ar    1  UNL1       -0.1250
      6 N          66.3300   93.8051   14.1205 N.ar    1  UNL1       -0.1220
      7 C          65.7493   92.6323   13.3875 C.ar    1  UNL1        0.1933
      8 N          65.6003   93.0148   11.9448 N.ar    1  UNL1       -0.2860
      9 C          65.0579   92.1415   10.8525 C.3     1  UNL1        0.1341
     10 C          68.0737   93.8809    9.2532 C.3     1  UNL1        0.0556
     11 C          67.0333   94.9577    9.3430 C.ar    1  UNL1        0.1001
     12 N          66.7225   95.9739    8.2844 N.ar    1  UNL1       -0.2085
     13 C          65.6181   96.8517    8.7944 C.ar    1  UNL1        0.2849
     14 O          65.2464   96.3779   10.1682 O.2     1  UNL1       -0.4283
     15 C          66.1210   95.2074   10.5073 C.ar    1  UNL1        0.1964
     16 C          62.6614   89.4630   12.0635 C.3     1  UNL1        0.0732
     17 N          62.2682   88.1489   11.4563 N.3     1  UNL1       -0.2682
     18 C          61.4460   88.1182   10.2021 C.3     1  UNL1        0.1046
     19 C          61.0528   86.8042    9.5950 C.3     1  UNL1        0.1598
     20 O          61.4820   85.5207   10.2420 O.3     1  UNL1       -0.3489
     21 C          62.3043   85.5514   11.4961 C.3     1  UNL1        0.1534
     22 C          62.6974   86.8654   12.1033 C.3     1  UNL1        0.1067
     23 C          62.7334   84.2679   12.1432 C.ar    1  UNL1        0.0060
     24 C          62.7429   82.9948   11.3501 C.ar    1  UNL1        0.0004
     25 C          63.1720   81.7113   11.9971 C.ar    1  UNL1        0.0294
     26 C          63.5917   81.7011   13.4372 C.ar    1  UNL1        0.1401
     27 F          64.0209   80.4176   14.0842 F       1  UNL1       -0.2042
     28 C          63.5823   82.9742   14.2302 C.ar    1  UNL1        0.0294
     29 C          63.1531   84.2577   13.5832 C.ar    1  UNL1        0.0004
@<TRIPOS>BOND
     1    10    11    1
     2    11    12   ar
     3    12    13   ar
     4    13    14   ar
     5    14    15   ar
     6    15     4    1
     7     4     5   ar
     8     5     6   ar
     9     6     7   ar
    10     7     3    1
    11     3     2    1
    12     2     1    1
    13     1    16    1
    14    16    17    1
    15    17    18    1
    16    18    19    1
    17    19    20    1
    18    20    21    1
    19    21    23    1
    20    23    24   ar
    21    24    25   ar
    22    25    26   ar
    23    26    27    1
    24    26    28   ar
    25    28    29   ar
    26    21    22    1
    27     7     8   ar
    28     8     9    1
    29    15    11   ar
    30     8     4   ar
    31    22    17    1
    32    29    23   ar
@<TRIPOS>MOLECULE
*****
 29 32 0 0 0
SMALL
GASTEIGER

@<TRIPOS>ATOM
      1 C          63.3649   89.7211   15.8859 C.3     1  UNL1        0.0294
      2 C          63.6171   88.2433   15.8341 C.3     1  UNL1        0.0666
      3 S          64.3783   87.6522   14.6848 S.3     1  UNL1       -0.0756
      4 C          63.0159   84.4119   13.0388 C.ar    1  UNL1        0.2029
      5 N          62.5623   85.4495   12.0551 N.ar    1  UNL1       -0.1250
      6 N          63.0175   86.7896   12.5520 N.ar    1  UNL1       -0.1220
      7 C          63.7524   86.5803   13.8427 C.ar    1  UNL1        0.1933
      8 N          63.7514   85.1107   14.1436 N.ar    1  UNL1       -0.2860
      9 C          64.3762   84.4551   15.3393 C.3     1  UNL1        0.1341
     10 C          64.0435   82.4653   10.6295 C.3     1  UNL1        0.0556
     11 C          63.2484   82.0400   11.8283 C.ar    1  UNL1        0.1001
     12 N          62.7860   80.6453   12.1301 N.ar    1  UNL1       -0.2085
     13 C          62.0279   80.6782   13.4241 C.ar    1  UNL1        0.2849
     14 O          62.0218   82.0931   13.9219 O.2     1  UNL1       -0.4283
     15 C          62.7760   82.9348   12.9357 C.ar    1  UNL1        0.1964
     16 C          63.5191   90.5521   14.6467 C.3     1  UNL1        0.0732
     17 N          64.6606   91.5182   14.5286 N.3     1  UNL1       -0.2682
     18 C          65.4281   91.9253   15.7514 C.3     1  UNL1        0.1046
     19 C          66.5695   92.8913   15.6333 C.3     1  UNL1        0.1598
     20 O          66.9435   93.4501   14.2925 O.3     1  UNL1       -0.3489
     21 C          66.1760   93.0430   13.0697 C.3     1  UNL1        0.1534
     22 C          65.0346   92.0770   13.1878 C.3     1  UNL1        0.1067
     23 C          66.5500   93.6018   11.7289 C.ar    1  UNL1        0.0060
     24 C          67.2374   92.7316   10.7189 C.ar    1  UNL1        0.0004
     25 C          67.6113   93.2905    9.3781 C.ar    1  UNL1        0.0294
     26 C          67.2979   94.7195    9.0472 C.ar    1  UNL1        0.1401
     27 F          67.6719   95.2784    7.7064 F       1  UNL1       -0.2042
     28 C          66.6105   95.5898   10.0573 C.ar    1  UNL1        0.0294
     29 C          66.2366   95.0309   11.3981 C.ar    1  UNL1        0.0004
@<TRIPOS>BOND
     1    10    11    1
     2    11    12   ar
     3    12    13   ar
     4    13    14   ar
     5    14    15   ar
     6    15     4    1
     7     4     5   ar
     8     5     6   ar
     9     6     7   ar
    10     7     3    1
    11     3     2    1
    12     2     1    1
    13     1    16    1
    14    16    17    1
    15    17    18    1
    16    18    19    1
    17    19    20    1
    18    20    21    1
    19    21    23    1
    20    23    24   ar
    21    24    25   ar
    22    25    26   ar
    23    26    27    1
    24    26    28   ar
    25    28    29   ar
    26    21    22    1
    27     7     8   ar
    28     8     9    1
    29    15    11   ar
    30     8     4   ar
    31    22    17    1
    32    29    23   ar
@<TRIPOS>MOLECULE
*****
 29 32 0 0 0
SMALL
GASTEIGER

@<TRIPOS>ATOM
      1 C          61.2318   90.2741   10.1896 C.3     1  UNL1        0.0294
      2 C          60.6561   89.6367    8.9598 C.3     1  UNL1        0.0666
      3 S          60.2453   88.1943    8.9849 S.3     1  UNL1       -0.0756
      4 C          62.1825   85.4018   10.8595 C.ar    1  UNL1        0.2029
      5 N          61.6029   86.1735   12.0079 N.ar    1  UNL1       -0.1250
      6 N          60.8066   87.3135   11.4453 N.ar    1  UNL1       -0.1220
      7 C          60.8942   87.2464    9.9494 C.ar    1  UNL1        0.1933
      8 N          61.7445   86.0649    9.5874 N.ar    1  UNL1       -0.2860
      9 C          62.0953   85.6239    8.1972 C.3     1  UNL1        0.1341
     10 C          62.7131   83.6542   13.5640 C.3     1  UNL1        0.0556
     11 C          63.2920   83.3781   12.2081 C.ar    1  UNL1        0.1001
     12 N          64.2165   82.2501   11.8572 N.ar    1  UNL1       -0.2085
     13 C          64.5440   82.3564   10.3972 C.ar    1  UNL1        0.2849
     14 O          63.8219   83.5499    9.8458 O.2     1  UNL1       -0.4283
     15 C          63.0482   84.1813   10.9649 C.ar    1  UNL1        0.1964
     16 C          62.5863   90.9163   10.1375 C.3     1  UNL1        0.0732
     17 N          63.4584   90.9280   11.3580 N.3     1  UNL1       -0.2682
     18 C          64.5701   91.9280   11.4759 C.3     1  UNL1        0.1046
     19 C          65.4421   91.9396   12.6963 C.3     1  UNL1        0.1598
     20 O          65.2023   90.9512   13.7988 O.3     1  UNL1       -0.3489
     21 C          64.0905   89.9512   13.6809 C.3     1  UNL1        0.1534
     22 C          63.2185   89.9396   12.4605 C.3     1  UNL1        0.1067
     23 C          63.8507   88.9628   14.7835 C.ar    1  UNL1        0.0060
     24 C          63.2444   89.4162   16.0784 C.ar    1  UNL1        0.0004
     25 C          63.0046   88.4278   17.1810 C.ar    1  UNL1        0.0294
     26 C          63.3710   86.9861   16.9886 C.ar    1  UNL1        0.1401
     27 F          63.1312   85.9977   18.0911 F       1  UNL1       -0.2042
     28 C          63.9772   86.5327   15.6936 C.ar    1  UNL1        0.0294
     29 C          64.2171   87.5211   14.5911 C.ar    1  UNL1        0.0004
@<TRIPOS>BOND
     1    10    11    1
     2    11    12   ar
     3    12    13   ar
     4    13    14   ar
     5    14    15   ar
     6    15     4    1
     7     4     5   ar
     8     5     6   ar
     9     6     7   ar
    10     7     3    1
    11     3     2    1
    12     2     1    1
    13     1    16    1
    14    16    17    1
    15    17    18    1
    16    18    19    1
    17    19    20    1
    18    20    21    1
    19    21    23    1
    20    23    24   ar
    21    24    25   ar
    22    25    26   ar
    23    26    27    1
    24    26    28   ar
    25    28    29   ar
    26    21    22    1
    27     7     8   ar
    28     8     9    1
    29    15    11   ar
    30     8     4   ar
    31    22    17    1
    32    29    23   ar
@<TRIPOS>MOLECULE
*****
 29 32 0 0 0
SMALL
GASTEIGER

@<TRIPOS>ATOM
      1 C          63.8859   85.4472   15.9579 C.3     1  UNL1        0.0294
      2 C          62.8275   86.4818   16.2017 C.3     1  UNL1        0.0666
      3 S          63.1540   87.7189   16.9847 S.3     1  UNL1       -0.0756
      4 C          63.9415   90.6470   14.5617 C.ar    1  UNL1        0.2029
      5 N          63.5162   91.3942   15.7908 N.ar    1  UNL1       -0.1250
      6 N          63.1694   90.3883   16.8481 N.ar    1  UNL1       -0.1220
      7 C          63.3804   89.0193   16.2724 C.ar    1  UNL1        0.1933
      8 N          63.8576   89.1792   14.8593 N.ar    1  UNL1       -0.2860
      9 C          64.1921   88.0667   13.9105 C.3     1  UNL1        0.1341
     10 C          62.4253   90.3272   11.6896 C.3     1  UNL1        0.0556
     11 C          63.6777   91.1129   11.9428 C.ar    1  UNL1        0.1001
     12 N          64.4531   91.8896   10.9203 N.ar    1  UNL1       -0.2085
     13 C          65.6293   92.5166   11.6086 C.ar    1  UNL1        0.2849
     14 O          65.5808   92.1274   13.0564 O.2     1  UNL1       -0.4283
     15 C          64.3747   91.2599   13.2630 C.ar    1  UNL1        0.1964
     16 C          63.5181   84.1273   15.3478 C.3     1  UNL1        0.0732
     17 N          63.5533   83.9537   13.8582 N.3     1  UNL1       -0.2682
     18 C          64.3731   82.8545   13.2504 C.3     1  UNL1        0.1046
     19 C          64.4082   82.6810   11.7609 C.3     1  UNL1        0.1598
     20 O          63.6235   83.6067   10.8793 O.3     1  UNL1       -0.3489
     21 C          62.8037   84.7059   11.4871 C.3     1  UNL1        0.1534
     22 C          62.7685   84.8794   12.9766 C.3     1  UNL1        0.1067
     23 C          62.0189   85.6316   10.6055 C.ar    1  UNL1        0.0060
     24 C          61.1081   86.6556   11.2153 C.ar    1  UNL1        0.0004
     25 C          60.3234   87.5813   10.3337 C.ar    1  UNL1        0.0294
     26 C          60.4495   87.4830    8.8422 C.ar    1  UNL1        0.1401
     27 F          59.6647   88.4088    7.9606 F       1  UNL1       -0.2042
     28 C          61.3602   86.4591    8.2324 C.ar    1  UNL1        0.0294
     29 C          62.1450   85.5334    9.1141 C.ar    1  UNL1        0.0004
@<TRIPOS>BOND
     1    10    11    1
     2    11    12   ar
     3    12    13   ar
     4    13    14   ar
     5    14    15   ar
     6    15     4    1
     7     4     5   ar
     8     5     6   ar
     9     6     7   ar
    10     7     3    1
    11     3     2    1
    12     2     1    1
    13     1    16    1
    14    16    17    1
    15    17    18    1
    16    18    19    1
    17    19    20    1
    18    20    21    1
    19    21    23    1
    20    23    24   ar
    21    24    25   ar
    22    25    26   ar
    23    26    27    1
    24    26    28   ar
    25    28    29   ar
    26    21    22    1
    27     7     8   ar
    28     8     9    1
    29    15    11   ar
    30     8     4   ar
    31    22    17    1
    32    29    23   ar
@<TRIPOS>MOLECULE
*****
 29 32 0 0 0
SMALL
GASTEIGER

@<TRIPOS>ATOM
      1 C          59.8412   88.6771    8.6926 C.3     1  UNL1        0.0294
      2 C          60.4241   89.7046    9.6171 C.3     1  UNL1        0.0666
      3 S          61.9089   89.7778    9.8165 S.3     1  UNL1       -0.0756
      4 C          63.8205   90.6734   13.0737 C.ar    1  UNL1        0.2029
      5 N          62.8651   89.6314   13.5754 N.ar    1  UNL1       -0.1250
      6 N          62.0328   89.1691   12.4163 N.ar    1  UNL1       -0.1220
      7 C          62.4737   89.9254   11.1982 C.ar    1  UNL1        0.1933
      8 N          63.5785   90.8550   11.6045 N.ar    1  UNL1       -0.2860
      9 C          64.3126   91.8004   10.7004 C.3     1  UNL1        0.1341
     10 C          63.7813   91.0093   16.3195 C.3     1  UNL1        0.0556
     11 C          64.8208   91.5595   15.3887 C.ar    1  UNL1        0.1001
     12 N          66.0250   92.3608   15.7863 N.ar    1  UNL1       -0.2085
     13 C          66.7871   92.7016   14.5400 C.ar    1  UNL1        0.2849
     14 O          66.0541   92.1110   13.3722 O.2     1  UNL1       -0.4283
     15 C          64.8389   91.4051   13.8967 C.ar    1  UNL1        0.1964
     16 C          59.6974   87.2549    9.1471 C.3     1  UNL1        0.0732
     17 N          60.9009   86.3615    9.2080 N.3     1  UNL1       -0.2682
     18 C          61.6096   85.9709    7.9451 C.3     1  UNL1        0.1046
     19 C          62.8131   85.0776    8.0061 C.3     1  UNL1        0.1598
     20 O          63.3077   84.5750    9.3300 O.3     1  UNL1       -0.3489
     21 C          62.5989   84.9656   10.5929 C.3     1  UNL1        0.1534
     22 C          61.3955   85.8589   10.5319 C.3     1  UNL1        0.1067
     23 C          63.0936   84.4630   11.9168 C.ar    1  UNL1        0.0060
     24 C          63.2476   82.9892   12.1494 C.ar    1  UNL1        0.0004
     25 C          63.7422   82.4865   13.4733 C.ar    1  UNL1        0.0294
     26 C          64.0828   83.4577   14.5645 C.ar    1  UNL1        0.1401
     27 F          64.5775   82.9550   15.8884 F       1  UNL1       -0.2042
     28 C          63.9288   84.9315   14.3319 C.ar    1  UNL1        0.0294
     29 C          63.4342   85.4341   13.0080 C.ar    1  UNL1        0.0004
@<TRIPOS>BOND
     1    10    11    1
     2    11    12   ar
     3    12    13   ar
     4    13    14   ar
     5    14    15   ar
     6    15     4    1
     7     4     5   ar
     8     5     6   ar
     9     6     7   ar
    10     7     3    1
    11     3     2    1
    12     2     1    1
    13     1    16    1
    14    16    17    1
    15    17    18    1
    16    18    19    1
    17    19    20    1
    18    20    21    1
    19    21    23    1
    20    23    24   ar
    21    24    25   ar
    22    25    26   ar
    23    26    27    1
    24    26    28   ar
    25    28    29   ar
    26    21    22    1
    27     7     8   ar
    28     8     9    1
    29    15    11   ar
    30     8     4   ar
    31    22    17    1
    32    29    23   ar
