@<TRIPOS>MOLECULE
*****
 26 29 0 0 0
SMALL
GASTEIGER

@<TRIPOS>ATOM
      1 C          63.9152   85.7630   13.6691 C.2     1  UNL1        0.1203
      2 C          63.9648   84.4459   12.9529 C.2     1  UNL1        0.0299
      3 C          63.2744   84.2846   11.6311 C.2     1  UNL1       -0.0018
      4 C          63.3240   82.9676   10.9148 C.3     1  UNL1        0.0327
      5 C          62.5344   85.4404   11.0254 C.ar    1  UNL1        0.0754
      6 N          61.8440   85.2790    9.7035 N.ar    1  UNL1       -0.2257
      7 C          61.1040   86.4347    9.0979 C.ar    1  UNL1        0.1846
      8 N          60.3340   86.5737    7.8182 N.2     1  UNL1       -0.1288
      9 N          59.8085   87.9766    7.7435 N.2     1  UNL1       -0.1508
     10 C          60.2538   88.7047    8.9770 C.2     1  UNL1        0.0837
     11 C          59.9514   90.1347    9.3143 C.3     1  UNL1        0.0541
     12 C          61.0545   87.7517    9.8141 C.ar    1  UNL1        0.0512
     13 C          61.7449   87.9130   11.1360 C.ar    1  UNL1        0.0120
     14 C          62.4848   86.7573   11.7416 C.ar    1  UNL1        0.0016
     15 C          63.1752   86.9187   13.0635 C.3     1  UNL1        0.0914
     16 C          61.6953   89.2301   11.8522 C.3     1  UNL1        0.1721
     17 O          60.5450   89.5464   12.7616 O.3     1  UNL1       -0.3742
     18 H          59.9271   88.7988   12.7735 H       1  UNL1        0.2113
     19 C          62.7959   90.2307   11.6591 C.ar    1  UNL1        0.0888
     20 C          63.1896   90.8685   10.3599 C.ar    1  UNL1        0.1161
     21 N          64.3331   91.8013   10.6291 N.ar    1  UNL1       -0.2226
     22 C          64.6461   91.7398   12.0949 C.ar    1  UNL1        0.1784
     23 N          63.6961   90.7691   12.7314 N.ar    1  UNL1       -0.3082
     24 C          63.6536   90.4015   14.1850 C.3     1  UNL1        0.1318
     25 C          63.8488   85.6939   16.2655 C.3     1  UNL1        0.2520
     26 O          64.6056   85.9243   14.9910 O.2     1  UNL1       -0.4754
@<TRIPOS>BOND
     1    25    26    1
     2    26     1    1
     3     1     2    2
     4     2     3    1
     5     3     4    1
     6     3     5    2
     7     5     6   ar
     8     6     7   ar
     9     7     8    1
    10     8     9    2
    11     9    10    1
    12    10    11    1
    13    10    12    2
    14    12    13   ar
    15    13    16    1
    16    16    17    1
    17    16    19    1
    18    19    20   ar
    19    20    21   ar
    20    21    22   ar
    21    22    23   ar
    22    23    24    1
    23    13    14   ar
    24    14    15    1
    25    15     1    1
    26    14     5   ar
    27    12     7   ar
    28    23    19   ar
    29    17    18    1
@<TRIPOS>MOLECULE
*****
 26 29 0 0 0
SMALL
GASTEIGER

@<TRIPOS>ATOM
      1 C          62.7302   83.5239   12.8040 C.2     1  UNL1        0.1203
      2 C          63.7178   83.8310   13.8904 C.2     1  UNL1        0.0299
      3 C          64.1563   85.2458   14.1274 C.2     1  UNL1       -0.0018
      4 C          65.1438   85.5529   15.2139 C.3     1  UNL1        0.0327
      5 C          63.6071   86.3535   13.2779 C.ar    1  UNL1        0.0754
      6 N          64.0456   87.7683   13.5150 N.ar    1  UNL1       -0.2257
      7 C          63.4964   88.8759   12.6655 C.ar    1  UNL1        0.1846
      8 N          63.7409   90.3558   12.6650 N.2     1  UNL1       -0.1288
      9 N          62.9043   90.9633   11.5782 N.2     1  UNL1       -0.1508
     10 C          62.1429   89.8589   10.9070 C.2     1  UNL1        0.0837
     11 C          61.1839   90.0168    9.7645 C.3     1  UNL1        0.0541
     12 C          62.5089   88.5687   11.5791 C.ar    1  UNL1        0.0512
     13 C          62.0704   87.1540   11.3421 C.ar    1  UNL1        0.0120
     14 C          62.6196   86.0464   12.1915 C.ar    1  UNL1        0.0016
     15 C          62.1811   84.6315   11.9545 C.3     1  UNL1        0.0914
     16 C          61.0829   86.8468   10.2556 C.3     1  UNL1        0.1721
     17 O          59.6480   87.2568   10.4084 O.3     1  UNL1       -0.3742
     18 H          59.5290   87.7058   11.2600 H       1  UNL1        0.2113
     19 C          61.5300   86.1297    9.0164 C.ar    1  UNL1        0.0888
     20 C          62.8689   85.4878    8.8038 C.ar    1  UNL1        0.1161
     21 N          62.8833   84.8899    7.4282 N.ar    1  UNL1       -0.2226
     22 C          61.5531   85.1623    6.7906 C.ar    1  UNL1        0.1784
     23 N          60.7168   85.9285    7.7722 N.ar    1  UNL1       -0.3082
     24 C          59.3136   86.4092    7.5487 C.3     1  UNL1        0.1318
     25 C          61.7702   81.2847   13.7065 C.3     1  UNL1        0.2520
     26 O          62.2918   82.1091   12.5670 O.2     1  UNL1       -0.4754
@<TRIPOS>BOND
     1    25    26    1
     2    26     1    1
     3     1     2    2
     4     2     3    1
     5     3     4    1
     6     3     5    2
     7     5     6   ar
     8     6     7   ar
     9     7     8    1
    10     8     9    2
    11     9    10    1
    12    10    11    1
    13    10    12    2
    14    12    13   ar
    15    13    16    1
    16    16    17    1
    17    16    19    1
    18    19    20   ar
    19    20    21   ar
    20    21    22   ar
    21    22    23   ar
    22    23    24    1
    23    13    14   ar
    24    14    15    1
    25    15     1    1
    26    14     5   ar
    27    12     7   ar
    28    23    19   ar
    29    17    18    1
@<TRIPOS>MOLECULE
*****
 26 29 0 0 0
SMALL
GASTEIGER

@<TRIPOS>ATOM
      1 C          62.9255   88.9929   11.7591 C.2     1  UNL1        0.1203
      2 C          62.2075   88.5896   10.5054 C.2     1  UNL1        0.0299
      3 C          61.9564   87.1389   10.2185 C.2     1  UNL1       -0.0018
      4 C          61.2384   86.7355    8.9648 C.3     1  UNL1        0.0327
      5 C          62.4234   86.0914   11.1855 C.ar    1  UNL1        0.0754
      6 N          62.1723   84.6406   10.8986 N.ar    1  UNL1       -0.2257
      7 C          62.6392   83.5932   11.8655 C.ar    1  UNL1        0.1846
      8 N          62.5359   82.0968   11.8515 N.2     1  UNL1       -0.1288
      9 N          63.1900   81.5754   13.0965 N.2     1  UNL1       -0.1508
     10 C          63.6976   82.7494   13.8800 C.2     1  UNL1        0.0837
     11 C          64.4190   82.6873   15.1937 C.3     1  UNL1        0.0541
     12 C          63.3572   83.9965   13.1192 C.ar    1  UNL1        0.0512
     13 C          63.6083   85.4473   13.4060 C.ar    1  UNL1        0.0120
     14 C          63.1413   86.4947   12.4391 C.ar    1  UNL1        0.0016
     15 C          63.3924   87.9455   12.7260 C.3     1  UNL1        0.0914
     16 C          64.3263   85.8507   14.6597 C.3     1  UNL1        0.1721
     17 O          65.8248   85.8070   14.7130 O.3     1  UNL1       -0.3742
     18 H          66.1697   85.4983   13.8606 H       1  UNL1        0.2113
     19 C          63.5459   86.2976   15.8602 C.ar    1  UNL1        0.0888
     20 C          62.8062   85.4060   16.8130 C.ar    1  UNL1        0.1161
     21 N          62.1713   86.2721   17.8603 N.ar    1  UNL1       -0.2226
     22 C          62.5186   87.6990   17.5547 C.ar    1  UNL1        0.1784
     23 N          63.3681   87.7148   16.3186 N.ar    1  UNL1       -0.3082
     24 C          63.9395   88.9337   15.6570 C.3     1  UNL1        0.1318
     25 C          63.6738   91.3483   10.9575 C.3     1  UNL1        0.2520
     26 O          63.1765   90.4436   12.0459 O.2     1  UNL1       -0.4754
@<TRIPOS>BOND
     1    25    26    1
     2    26     1    1
     3     1     2    2
     4     2     3    1
     5     3     4    1
     6     3     5    2
     7     5     6   ar
     8     6     7   ar
     9     7     8    1
    10     8     9    2
    11     9    10    1
    12    10    11    1
    13    10    12    2
    14    12    13   ar
    15    13    16    1
    16    16    17    1
    17    16    19    1
    18    19    20   ar
    19    20    21   ar
    20    21    22   ar
    21    22    23   ar
    22    23    24    1
    23    13    14   ar
    24    14    15    1
    25    15     1    1
    26    14     5   ar
    27    12     7   ar
    28    23    19   ar
    29    17    18    1
@<TRIPOS>MOLECULE
*****
 26 29 0 0 0
SMALL
GASTEIGER

@<TRIPOS>ATOM
      1 C          60.9384   86.0496    8.5245 C.2     1  UNL1        0.1203
      2 C          60.5997   87.5034    8.6723 C.2     1  UNL1        0.0299
      3 C          61.1046   88.2745    9.8557 C.2     1  UNL1       -0.0018
      4 C          60.7659   89.7283   10.0036 C.3     1  UNL1        0.0327
      5 C          61.9483   87.5919   10.8913 C.ar    1  UNL1        0.0754
      6 N          62.4532   88.3631   12.0747 N.ar    1  UNL1       -0.2257
      7 C          63.2968   87.6805   13.1102 C.ar    1  UNL1        0.1846
      8 N          63.9326   88.1783   14.3743 N.2     1  UNL1       -0.1288
      9 N          64.6642   87.0323   15.0076 N.2     1  UNL1       -0.1508
     10 C          64.4807   85.8261   14.1350 C.2     1  UNL1        0.0837
     11 C          65.0434   84.4593   14.3903 C.3     1  UNL1        0.0541
     12 C          63.6355   86.2267   12.9623 C.ar    1  UNL1        0.0512
     13 C          63.1306   85.4556   11.7789 C.ar    1  UNL1        0.0120
     14 C          62.2870   86.1382   10.7434 C.ar    1  UNL1        0.0016
     15 C          61.7821   85.3670    9.5600 C.3     1  UNL1        0.0914
     16 C          63.4693   84.0018   11.6311 C.3     1  UNL1        0.1721
     17 O          64.4851   83.5678   10.6161 O.3     1  UNL1       -0.3742
     18 H          64.8230   84.3450   10.1442 H       1  UNL1        0.2113
     19 C          62.7924   82.9820   12.4981 C.ar    1  UNL1        0.0888
     20 C          62.1899   83.2333   13.8485 C.ar    1  UNL1        0.1161
     21 N          61.6242   81.9385   14.3520 N.ar    1  UNL1       -0.2226
     22 C          61.8771   80.8870   13.3125 C.ar    1  UNL1        0.1784
     23 N          62.5991   81.5319   12.1668 N.ar    1  UNL1       -0.3082
     24 C          63.0488   80.8470   10.9104 C.3     1  UNL1        0.1318
     25 C          61.4038   84.6224    6.4039 C.3     1  UNL1        0.2520
     26 O          60.4335   85.2785    7.3411 O.2     1  UNL1       -0.4754
@<TRIPOS>BOND
     1    25    26    1
     2    26     1    1
     3     1     2    2
     4     2     3    1
     5     3     4    1
     6     3     5    2
     7     5     6   ar
     8     6     7   ar
     9     7     8    1
    10     8     9    2
    11     9    10    1
    12    10    11    1
    13    10    12    2
    14    12    13   ar
    15    13    16    1
    16    16    17    1
    17    16    19    1
    18    19    20   ar
    19    20    21   ar
    20    21    22   ar
    21    22    23   ar
    22    23    24    1
    23    13    14   ar
    24    14    15    1
    25    15     1    1
    26    14     5   ar
    27    12     7   ar
    28    23    19   ar
    29    17    18    1
@<TRIPOS>MOLECULE
*****
 26 29 0 0 0
SMALL
GASTEIGER

@<TRIPOS>ATOM
      1 C          63.9495   87.7651   14.2140 C.2     1  UNL1        0.1203
      2 C          63.7933   87.4583   15.6740 C.2     1  UNL1        0.0299
      3 C          63.4553   86.0652   16.1156 C.2     1  UNL1       -0.0018
      4 C          63.2991   85.7582   17.5755 C.3     1  UNL1        0.0327
      5 C          63.2734   84.9789   15.0971 C.ar    1  UNL1        0.0754
      6 N          62.9353   83.5858   15.5387 N.ar    1  UNL1       -0.2257
      7 C          62.7535   82.4996   14.5203 C.ar    1  UNL1        0.1846
      8 N          62.4198   81.0434   14.6548 N.2     1  UNL1       -0.1288
      9 N          62.3697   80.4503   13.2779 N.2     1  UNL1       -0.1508
     10 C          62.6725   81.5400   12.2925 C.2     1  UNL1        0.0837
     11 C          62.7283   81.3895   10.8012 C.3     1  UNL1        0.0541
     12 C          62.9097   82.8065   13.0604 C.ar    1  UNL1        0.0512
     13 C          63.2478   84.1996   12.6189 C.ar    1  UNL1        0.0120
     14 C          63.4296   85.2858   13.6373 C.ar    1  UNL1        0.0016
     15 C          63.7677   86.6790   13.1956 C.3     1  UNL1        0.0914
     16 C          63.4040   84.5066   11.1589 C.3     1  UNL1        0.1721
     17 O          64.5752   83.9588   10.3985 O.3     1  UNL1       -0.3742
     18 H          65.1300   83.4318   10.9947 H       1  UNL1        0.2113
     19 C          62.3890   85.3613   10.4594 C.ar    1  UNL1        0.0888
     20 C          61.3073   86.1640   11.1192 C.ar    1  UNL1        0.1161
     21 N          60.5273   86.8622   10.0449 N.ar    1  UNL1       -0.2226
     22 C          61.1270   86.4908    8.7211 C.ar    1  UNL1        0.1784
     23 N          62.2776   85.5632    8.9773 N.ar    1  UNL1       -0.3082
     24 C          63.1616   84.9460    7.9344 C.3     1  UNL1        0.1318
     25 C          63.4914   89.8137   12.6831 C.3     1  UNL1        0.2520
     26 O          64.2876   89.1582   13.7725 O.2     1  UNL1       -0.4754
@<TRIPOS>BOND
     1    25    26    1
     2    26     1    1
     3     1     2    2
     4     2     3    1
     5     3     4    1
     6     3     5    2
     7     5     6   ar
     8     6     7   ar
     9     7     8    1
    10     8     9    2
    11     9    10    1
    12    10    11    1
    13    10    12    2
    14    12    13   ar
    15    13    16    1
    16    16    17    1
    17    16    19    1
    18    19    20   ar
    19    20    21   ar
    20    21    22   ar
    21    22    23   ar
    22    23    24    1
    23    13    14   ar
    24    14    15    1
    25    15     1    1
    26    14     5   ar
    27    12     7   ar
    28    23    19   ar
    29    17    18    1
@<TRIPOS>MOLECULE
*****
 26 29 0 0 0
SMALL
GASTEIGER

@<TRIPOS>ATOM
      1 C          59.8752   88.9518    8.0964 C.2     1  UNL1        0.1203
      2 C          59.8677   87.6154    7.4152 C.2     1  UNL1        0.0299
      3 C          60.5728   86.4498    8.0429 C.2     1  UNL1       -0.0018
      4 C          60.5654   85.1133    7.3618 C.3     1  UNL1        0.0327
      5 C          61.2855   86.6206    9.3518 C.ar    1  UNL1        0.0754
      6 N          61.9907   85.4549    9.9795 N.ar    1  UNL1       -0.2257
      7 C          62.7033   85.6257   11.2883 C.ar    1  UNL1        0.1846
      8 N          63.4794   84.6664   12.1412 N.2     1  UNL1       -0.1288
      9 N          63.9666   85.4100   13.3493 N.2     1  UNL1       -0.1508
     10 C          63.4915   86.8289   13.2432 C.2     1  UNL1        0.0837
     11 C          63.7516   87.9224   14.2365 C.3     1  UNL1        0.0541
     12 C          62.7107   86.9621   11.9694 C.ar    1  UNL1        0.0512
     13 C          62.0056   88.1278   11.3417 C.ar    1  UNL1        0.0120
     14 C          61.2929   87.9569   10.0329 C.ar    1  UNL1        0.0016
     15 C          60.5878   89.1227    9.4052 C.3     1  UNL1        0.0914
     16 C          62.0130   89.4642   12.0227 C.3     1  UNL1        0.1721
     17 O          60.9733   89.7857   13.0552 O.3     1  UNL1       -0.3742
     18 H          60.3780   89.0273   13.1616 H       1  UNL1        0.2113
     19 C          63.0601   90.4792   11.6714 C.ar    1  UNL1        0.0888
     20 C          63.3579   90.9989   10.2963 C.ar    1  UNL1        0.1161
     21 N          64.4751   91.9936   10.4085 N.ar    1  UNL1       -0.2226
     22 C          64.8676   92.0886   11.8532 C.ar    1  UNL1        0.1784
     23 N          63.9931   91.1527   12.6337 N.ar    1  UNL1       -0.3082
     24 C          64.0428   90.9295   14.1161 C.3     1  UNL1        0.1318
     25 C          59.0160   90.1868    5.9781 C.3     1  UNL1        0.2520
     26 O          59.1700   90.1175    7.4686 O.2     1  UNL1       -0.4754
@<TRIPOS>BOND
     1    25    26    1
     2    26     1    1
     3     1     2    2
     4     2     3    1
     5     3     4    1
     6     3     5    2
     7     5     6   ar
     8     6     7   ar
     9     7     8    1
    10     8     9    2
    11     9    10    1
    12    10    11    1
    13    10    12    2
    14    12    13   ar
    15    13    16    1
    16    16    17    1
    17    16    19    1
    18    19    20   ar
    19    20    21   ar
    20    21    22   ar
    21    22    23   ar
    22    23    24    1
    23    13    14   ar
    24    14    15    1
    25    15     1    1
    26    14     5   ar
    27    12     7   ar
    28    23    19   ar
    29    17    18    1
@<TRIPOS>MOLECULE
*****
 26 29 0 0 0
SMALL
GASTEIGER

@<TRIPOS>ATOM
      1 C          62.9611   82.6471   11.9674 C.2     1  UNL1        0.1203
      2 C          63.3291   82.7546   13.4176 C.2     1  UNL1        0.0299
      3 C          63.4998   84.1040   14.0500 C.2     1  UNL1       -0.0018
      4 C          63.8678   84.2116   15.5002 C.3     1  UNL1        0.0327
      5 C          63.3024   85.3460   13.2322 C.ar    1  UNL1        0.0754
      6 N          63.4730   86.6954   13.8646 N.ar    1  UNL1       -0.2257
      7 C          63.2756   87.9373   13.0468 C.ar    1  UNL1        0.1846
      8 N          63.3747   89.3934   13.3932 N.2     1  UNL1       -0.1288
      9 N          63.0679   90.1857   12.1571 N.2     1  UNL1       -0.1508
     10 C          62.7792   89.2194   11.0467 C.2     1  UNL1        0.0837
     11 C          62.4245   89.5794    9.6345 C.3     1  UNL1        0.0541
     12 C          62.9076   87.8297   11.5967 C.ar    1  UNL1        0.0512
     13 C          62.7370   86.4803   10.9643 C.ar    1  UNL1        0.0120
     14 C          62.9344   85.2384   11.7821 C.ar    1  UNL1        0.0016
     15 C          62.7637   83.8890   11.1496 C.3     1  UNL1        0.0914
     16 C          62.3690   86.3727    9.5141 C.3     1  UNL1        0.1721
     17 O          63.4158   86.0216    8.4987 O.3     1  UNL1       -0.3742
     18 H          64.2690   85.8981    8.9433 H       1  UNL1        0.2113
     19 C          60.9542   86.6163    9.0793 C.ar    1  UNL1        0.0888
     20 C          59.9423   87.4561    9.8008 C.ar    1  UNL1        0.1161
     21 N          58.6656   87.4216    9.0141 N.ar    1  UNL1       -0.2226
     22 C          58.8886   86.5604    7.8063 C.ar    1  UNL1        0.1784
     23 N          60.3030   86.0627    7.8466 N.ar    1  UNL1       -0.3082
     24 C          60.9523   85.1684    6.8323 C.3     1  UNL1        0.1318
     25 C          62.6785   80.0746   12.1962 C.3     1  UNL1        0.2520
     26 O          62.7905   81.2977   11.3350 O.2     1  UNL1       -0.4754
@<TRIPOS>BOND
     1    25    26    1
     2    26     1    1
     3     1     2    2
     4     2     3    1
     5     3     4    1
     6     3     5    2
     7     5     6   ar
     8     6     7   ar
     9     7     8    1
    10     8     9    2
    11     9    10    1
    12    10    11    1
    13    10    12    2
    14    12    13   ar
    15    13    16    1
    16    16    17    1
    17    16    19    1
    18    19    20   ar
    19    20    21   ar
    20    21    22   ar
    21    22    23   ar
    22    23    24    1
    23    13    14   ar
    24    14    15    1
    25    15     1    1
    26    14     5   ar
    27    12     7   ar
    28    23    19   ar
    29    17    18    1
@<TRIPOS>MOLECULE
*****
 26 29 0 0 0
SMALL
GASTEIGER

@<TRIPOS>ATOM
      1 C          60.7654   86.6848    9.3099 C.2     1  UNL1        0.1203
      2 C          60.9879   88.1625    9.1800 C.2     1  UNL1        0.0299
      3 C          61.8212   88.8875   10.1949 C.2     1  UNL1       -0.0018
      4 C          62.0437   90.3652   10.0651 C.3     1  UNL1        0.0327
      5 C          62.4322   88.1347   11.3395 C.ar    1  UNL1        0.0754
      6 N          63.2655   88.8598   12.3544 N.ar    1  UNL1       -0.2257
      7 C          63.8764   88.1070   13.4990 C.ar    1  UNL1        0.1846
      8 N          64.7382   88.5485   14.6446 N.2     1  UNL1       -0.1288
      9 N          65.0484   87.3436   15.4824 N.2     1  UNL1       -0.1508
     10 C          64.3783   86.1574   14.8546 C.2     1  UNL1        0.0837
     11 C          64.4244   84.7471   15.3634 C.3     1  UNL1        0.0541
     12 C          63.6540   86.6293   13.6288 C.ar    1  UNL1        0.0512
     13 C          62.8206   85.9043   12.6139 C.ar    1  UNL1        0.0120
     14 C          62.2097   86.6571   11.4693 C.ar    1  UNL1        0.0016
     15 C          61.3763   85.9320   10.4545 C.3     1  UNL1        0.0914
     16 C          62.5981   84.4266   12.7437 C.3     1  UNL1        0.1721
     17 O          61.7408   83.8917   13.8523 O.3     1  UNL1       -0.3742
     18 H          61.4108   84.6285   14.3901 H       1  UNL1        0.2113
     19 C          63.2330   83.4838   11.7650 C.ar    1  UNL1        0.0888
     20 C          64.1741   83.8619   10.6600 C.ar    1  UNL1        0.1161
     21 N          64.5610   82.6091    9.9314 N.ar    1  UNL1       -0.2226
     22 C          63.8588   81.4566   10.5863 C.ar    1  UNL1        0.1784
     23 N          63.0381   81.9972   11.7194 N.ar    1  UNL1       -0.3082
     24 C          62.1742   81.1925   12.6447 C.3     1  UNL1        0.1318
     25 C          58.9107   86.7081    7.4906 C.3     1  UNL1        0.2520
     26 O          59.9321   85.9598    8.2950 O.2     1  UNL1       -0.4754
@<TRIPOS>BOND
     1    25    26    1
     2    26     1    1
     3     1     2    2
     4     2     3    1
     5     3     4    1
     6     3     5    2
     7     5     6   ar
     8     6     7   ar
     9     7     8    1
    10     8     9    2
    11     9    10    1
    12    10    11    1
    13    10    12    2
    14    12    13   ar
    15    13    16    1
    16    16    17    1
    17    16    19    1
    18    19    20   ar
    19    20    21   ar
    20    21    22   ar
    21    22    23   ar
    22    23    24    1
    23    13    14   ar
    24    14    15    1
    25    15     1    1
    26    14     5   ar
    27    12     7   ar
    28    23    19   ar
    29    17    18    1
@<TRIPOS>MOLECULE
*****
 26 29 0 0 0
SMALL
GASTEIGER

@<TRIPOS>ATOM
      1 C          62.5504   84.3239   11.7167 C.2     1  UNL1        0.1203
      2 C          61.9005   84.8444   10.4689 C.2     1  UNL1        0.0299
      3 C          61.8631   86.3200   10.2024 C.2     1  UNL1       -0.0018
      4 C          61.2134   86.8406    8.9547 C.3     1  UNL1        0.0327
      5 C          62.4756   87.2752   11.1837 C.ar    1  UNL1        0.0754
      6 N          62.4381   88.7509   10.9171 N.ar    1  UNL1       -0.2257
      7 C          63.0505   89.7059   11.8984 C.ar    1  UNL1        0.1846
      8 N          63.1654   91.2015   11.9052 N.2     1  UNL1       -0.1288
      9 N          63.8863   91.6052   13.1572 N.2     1  UNL1       -0.1508
     10 C          64.2168   90.3592   13.9241 C.2     1  UNL1        0.0837
     11 C          64.9374   90.2978   15.2382 C.3     1  UNL1        0.0541
     12 C          63.7003   89.1853   13.1461 C.ar    1  UNL1        0.0512
     13 C          63.7377   87.7097   13.4126 C.ar    1  UNL1        0.0120
     14 C          63.1253   86.7546   12.4314 C.ar    1  UNL1        0.0016
     15 C          63.1627   85.2789   12.6979 C.3     1  UNL1        0.0914
     16 C          64.3875   87.1891   14.6603 C.3     1  UNL1        0.1721
     17 O          65.8613   86.9101   14.6780 O.3     1  UNL1       -0.3742
     18 H          66.2403   87.1183   13.8097 H       1  UNL1        0.2113
     19 C          63.5636   86.9475   15.8902 C.ar    1  UNL1        0.0888
     20 C          63.0834   87.9956   16.8497 C.ar    1  UNL1        0.1161
     21 N          62.2982   87.3112   17.9291 N.ar    1  UNL1       -0.2226
     22 C          62.2931   85.8400   17.6366 C.ar    1  UNL1        0.1784
     23 N          63.0751   85.6152   16.3765 N.ar    1  UNL1       -0.3082
     24 C          63.3249   84.2907   15.7183 C.3     1  UNL1        0.1318
     25 C          63.8888   82.1783   12.3130 C.3     1  UNL1        0.2520
     26 O          62.5877   82.8482   11.9832 O.2     1  UNL1       -0.4754
@<TRIPOS>BOND
     1    25    26    1
     2    26     1    1
     3     1     2    2
     4     2     3    1
     5     3     4    1
     6     3     5    2
     7     5     6   ar
     8     6     7   ar
     9     7     8    1
    10     8     9    2
    11     9    10    1
    12    10    11    1
    13    10    12    2
    14    12    13   ar
    15    13    16    1
    16    16    17    1
    17    16    19    1
    18    19    20   ar
    19    20    21   ar
    20    21    22   ar
    21    22    23   ar
    22    23    24    1
    23    13    14   ar
    24    14    15    1
    25    15     1    1
    26    14     5   ar
    27    12     7   ar
    28    23    19   ar
    29    17    18    1
