@<TRIPOS>MOLECULE
*****
 43 49 0 0 0
SMALL
GASTEIGER

@<TRIPOS>ATOM
      1 N          59.0048   95.3140   -2.9202 N.3     1  UNL1       -0.2676
      2 C          60.4950   95.4347   -2.7995 C.3     1  UNL1        0.0746
      3 C          61.2013   94.8482   -1.6134 C.3     1  UNL1        0.0449
      4 C          60.4174   94.1409   -0.5479 C.3     1  UNL1        0.1391
      5 C          58.9272   94.0202   -0.6685 C.3     1  UNL1        0.0449
      6 C          58.2209   94.6067   -1.8547 C.3     1  UNL1        0.0746
      7 C          59.7704   93.4094    0.5907 C.2     1  UNL1        0.2529
      8 O          58.3034   93.1360    0.7429 O.2     1  UNL1       -0.2724
      9 N          60.8479   92.9993    1.5503 N.am    1  UNL1       -0.1907
     10 C          62.1610   93.4773    1.0048 C.2     1  UNL1        0.3219
     11 O          63.5041   93.2838    1.6437 O.2     1  UNL1       -0.2512
     12 N          61.8949   94.1829   -0.2919 N.am    1  UNL1       -0.2222
     13 C          62.9253   94.8188   -1.1773 C.ar    1  UNL1        0.1453
     14 C          63.4913   94.0552   -2.3377 C.ar    1  UNL1        0.0922
     15 C          64.5217   94.6912   -3.2230 C.ar    1  UNL1        0.2259
     16 O          65.0876   93.9277   -4.3835 O.3     1  UNL1       -0.4919
     17 N          64.9861   96.0908   -2.9480 N.ar    1  UNL1       -0.1894
     18 C          64.4201   96.8543   -1.7876 C.ar    1  UNL1        0.2027
     19 N          63.3897   96.2183   -0.9022 N.ar    1  UNL1       -0.2084
     20 H          64.7975   93.0534   -4.5553 H       1  UNL1        0.2938
     21 C          60.6477   92.2438    2.8306 C.ar    1  UNL1        0.0622
     22 C          61.7629   91.4142    3.3942 C.ar    1  UNL1        0.0154
     23 C          61.5626   90.6587    4.6744 C.ar    1  UNL1        0.0013
     24 C          60.2471   90.7328    5.3911 C.ar    1  UNL1        0.0001
     25 C          59.1317   91.5625    4.8274 C.ar    1  UNL1        0.0013
     26 C          59.3320   92.3180    3.5472 C.ar    1  UNL1        0.0154
     27 C          60.0468   89.9773    6.6713 C.ar    1  UNL1        0.0015
     28 C          59.2196   88.7261    6.6822 C.ar    1  UNL1        0.0006
     29 C          59.0192   87.9705    7.9625 C.ar    1  UNL1        0.0080
     30 C          59.6462   88.4662    9.2319 C.ar    1  UNL1        0.0485
     31 S          59.6248   87.9370   10.6352 S.2     1  UNL1       -0.0645
     32 C          60.4388   88.8610   11.4916 C.ar    1  UNL1        0.1345
     33 N          60.9633   89.9615   10.6175 N.ar    1  UNL1       -0.2363
     34 C          60.4734   89.7175    9.2209 C.ar    1  UNL1        0.0879
     35 C          60.6737   90.4730    7.9407 C.ar    1  UNL1        0.0196
     36 C          58.2983   95.9006   -4.1064 C.3     1  UNL1        0.1183
     37 C          55.3587   95.3020   -4.1190 C.3     1  UNL1        0.0323
     38 C          56.2512   94.6995   -5.1632 C.ar    1  UNL1       -0.0069
     39 C          55.6740   93.7978   -6.2138 C.ar    1  UNL1       -0.0015
     40 C          56.5665   93.1954   -7.2580 C.ar    1  UNL1        0.0203
     41 C          58.0363   93.4947   -7.2517 C.ar    1  UNL1        0.0985
     42 N          58.6136   94.3964   -6.2012 N.ar    1  UNL1       -0.2471
     43 C          57.7211   94.9989   -5.1569 C.ar    1  UNL1        0.0712
@<TRIPOS>BOND
     1    37    38    1
     2    38    39   ar
     3    39    40   ar
     4    40    41   ar
     5    41    42   ar
     6    42    43   ar
     7    43    36    1
     8    36     1    1
     9     1     2    1
    10     2     3    1
    11     3     4    1
    12     4     5    1
    13     5     6    1
    14     4     7    1
    15     7     8    2
    16     7     9   am
    17     9    21    1
    18    21    22   ar
    19    22    23   ar
    20    23    24   ar
    21    24    27    1
    22    27    28   ar
    23    28    29   ar
    24    29    30   ar
    25    30    31   ar
    26    31    32   ar
    27    32    33   ar
    28    33    34   ar
    29    34    35   ar
    30    24    25   ar
    31    25    26   ar
    32     9    10   am
    33    10    11    2
    34    10    12   am
    35    12    13    1
    36    13    14   ar
    37    14    15   ar
    38    15    16    1
    39    15    17   ar
    40    17    18   ar
    41    18    19   ar
    42    43    38   ar
    43     6     1    1
    44    26    21   ar
    45    19    13   ar
    46    12     4    1
    47    35    27   ar
    48    34    30   ar
    49    16    20    1
