@<TRIPOS>MOLECULE
*****
 33 35 0 0 0
SMALL
GASTEIGER

@<TRIPOS>ATOM
      1 N          63.8350   87.7743   14.4355 N.3     1  UNL1       -0.1512
      2 C          64.3757   88.7339   13.4173 C.3     1  UNL1        0.1224
      3 C          64.4140   90.0979   14.0402 C.3     1  UNL1        0.1801
      4 C          63.8970   89.9813   15.4435 C.3     1  UNL1        0.1408
      5 O          63.4346   90.1732   16.8574 O.3     1  UNL1       -0.3822
      6 C          63.5392   88.5452   15.6877 C.3     1  UNL1        0.1257
      7 H          63.5247   91.1072   17.1031 H       1  UNL1        0.2104
      8 C          64.1582   91.4574   15.4948 C.3     1  UNL1        0.0956
      9 N          63.8112   92.2380   16.7277 N.3     1  UNL1       -0.3191
     10 H          62.7992   92.2392   16.8558 H       1  UNL1        0.1189
     11 H          64.1423   93.1975   16.6271 H       1  UNL1        0.1189
     12 S          63.6266   86.3022   14.2364 S.O2    1  UNL1        0.0642
     13 O          63.0834   86.5649   12.8631 O.2     1  UNL1       -0.1527
     14 O          64.1699   86.0396   15.6096 O.2     1  UNL1       -0.1527
     15 C          63.0017   81.8861   13.6390 C.ar    1  UNL1        0.0694
     16 C          64.0336   82.6138   12.8294 C.ar    1  UNL1        0.0117
     17 C          64.2419   84.0858   13.0285 C.ar    1  UNL1        0.0215
     18 C          63.4183   84.8302   14.0372 C.ar    1  UNL1        0.1327
     19 C          62.3865   84.1024   14.8469 C.ar    1  UNL1        0.0769
     20 CL         61.5628   84.8468   15.8557 Cl      1  UNL1       -0.0808
     21 C          62.1782   82.6304   14.6478 C.ar    1  UNL1        0.0230
     22 N          62.5851   78.9419   13.2408 N.1     1  UNL1       -0.1908
     23 C          62.7934   80.4140   13.4399 C.1     1  UNL1        0.1004
     24 S          64.8864   91.3574   13.3765 S.O2    1  UNL1        0.0271
     25 O          66.2367   91.1826   14.0059 O.2     1  UNL1       -0.1671
     26 O          63.5361   91.5322   12.7471 O.2     1  UNL1       -0.1671
     27 C          65.3589   92.6168   12.7127 C.ar    1  UNL1        0.1863
     28 C          65.1965   92.7904   11.2317 C.ar    1  UNL1        0.0388
     29 C          65.6689   94.0498   10.5678 C.ar    1  UNL1        0.0159
     30 C          66.3036   95.1357   11.3851 C.ar    1  UNL1        0.0769
     31 CL         66.7761   96.3952   10.7214 Cl      1  UNL1       -0.0806
     32 C          66.4660   94.9621   12.8662 C.ar    1  UNL1        0.1117
     33 N          65.9936   93.7027   13.5300 N.ar    1  UNL1       -0.2248
@<TRIPOS>BOND
     1    22    23    3
     2    23    15    1
     3    15    16   ar
     4    16    17   ar
     5    17    18   ar
     6    18    12    1
     7    12    13    2
     8    12    14    2
     9    12     1    1
    10     1     2    1
    11     2     3    1
    12     3    24    1
    13    24    25    2
    14    24    26    2
    15    24    27    1
    16    27    28   ar
    17    28    29   ar
    18    29    30   ar
    19    30    31    1
    20    30    32   ar
    21    32    33   ar
    22     3     4    1
    23     4     5    1
    24     4     8    1
    25     8     9    1
    26     4     6    1
    27    18    19   ar
    28    19    20    1
    29    19    21   ar
    30    21    15   ar
    31     6     1    1
    32    33    27   ar
    33     5     7    1
    34     9    10    1
    35     9    11    1
@<TRIPOS>MOLECULE
*****
 33 35 0 0 0
SMALL
GASTEIGER

@<TRIPOS>ATOM
      1 N          64.2930   89.1293   14.3534 N.3     1  UNL1       -0.1512
      2 C          64.2388   87.7907   13.6787 C.3     1  UNL1        0.1224
      3 C          63.7388   86.7885   14.6765 C.3     1  UNL1        0.1801
      4 C          63.4840   87.5077   15.9679 C.3     1  UNL1        0.1408
      5 O          63.1426   87.9436   17.3620 O.3     1  UNL1       -0.3822
      6 C          63.8265   88.9544   15.7682 C.3     1  UNL1        0.1257
      7 H          62.8372   87.1786   17.8742 H       1  UNL1        0.2104
      8 C          63.0701   86.1522   16.4590 C.3     1  UNL1        0.0956
      9 N          61.7729   85.9843   17.1932 N.3     1  UNL1       -0.3191
     10 H          61.8189   86.4814   18.0827 H       1  UNL1        0.1189
     11 H          61.6058   84.9931   17.3659 H       1  UNL1        0.1189
     12 S          64.7359   90.4167   13.7238 S.O2    1  UNL1        0.0642
     13 O          63.3966   90.5541   13.0625 O.2     1  UNL1       -0.1527
     14 O          66.0753   90.2793   14.3850 O.2     1  UNL1       -0.1527
     15 C          66.0647   94.2790   11.8351 C.ar    1  UNL1        0.0694
     16 C          65.3748   93.2368   11.0056 C.ar    1  UNL1        0.0117
     17 C          64.9319   91.9494   11.6352 C.ar    1  UNL1        0.0215
     18 C          65.1788   91.7041   13.0942 C.ar    1  UNL1        0.1327
     19 C          65.8687   92.7462   13.9237 C.ar    1  UNL1        0.0769
     20 CL         66.1157   92.5009   15.3828 Cl      1  UNL1       -0.0808
     21 C          66.3116   94.0336   13.2941 C.ar    1  UNL1        0.0230
     22 N          66.9505   96.8538   10.5759 N.1     1  UNL1       -0.1908
     23 C          66.5076   95.5664   11.2055 C.1     1  UNL1        0.1004
     24 S          63.5303   85.3242   14.4267 S.O2    1  UNL1        0.0271
     25 O          62.1527   85.6092   13.9061 O.2     1  UNL1       -0.1671
     26 O          64.9079   85.0392   14.9473 O.2     1  UNL1       -0.1671
     27 C          63.3218   83.8599   14.1769 C.ar    1  UNL1        0.1863
     28 C          62.1233   83.1644   14.7512 C.ar    1  UNL1        0.0388
     29 C          61.9146   81.7001   14.5015 C.ar    1  UNL1        0.0159
     30 C          62.9046   80.9314   13.6774 C.ar    1  UNL1        0.0769
     31 CL         62.6960   79.4671   13.4277 Cl      1  UNL1       -0.0806
     32 C          64.1031   81.6270   13.1031 C.ar    1  UNL1        0.1117
     33 N          64.3116   83.0913   13.3529 N.ar    1  UNL1       -0.2248
@<TRIPOS>BOND
     1    22    23    3
     2    23    15    1
     3    15    16   ar
     4    16    17   ar
     5    17    18   ar
     6    18    12    1
     7    12    13    2
     8    12    14    2
     9    12     1    1
    10     1     2    1
    11     2     3    1
    12     3    24    1
    13    24    25    2
    14    24    26    2
    15    24    27    1
    16    27    28   ar
    17    28    29   ar
    18    29    30   ar
    19    30    31    1
    20    30    32   ar
    21    32    33   ar
    22     3     4    1
    23     4     5    1
    24     4     8    1
    25     8     9    1
    26     4     6    1
    27    18    19   ar
    28    19    20    1
    29    19    21   ar
    30    21    15   ar
    31     6     1    1
    32    33    27   ar
    33     5     7    1
    34     9    10    1
    35     9    11    1
@<TRIPOS>MOLECULE
*****
 33 35 0 0 0
SMALL
GASTEIGER

@<TRIPOS>ATOM
      1 N          63.6301   86.6940   13.8871 N.3     1  UNL1       -0.1512
      2 C          64.1926   87.8308   13.0862 C.3     1  UNL1        0.1224
      3 C          64.1917   89.0543   13.9540 C.3     1  UNL1        0.1801
      4 C          63.6287   88.6737   15.2912 C.3     1  UNL1        0.1408
      5 O          63.1158   88.5945   16.6985 O.3     1  UNL1       -0.3822
      6 C          63.2816   87.2150   15.2498 C.3     1  UNL1        0.1257
      7 H          63.1851   89.4667   17.1175 H       1  UNL1        0.2104
      8 C          63.8685   90.1158   15.6267 C.3     1  UNL1        0.0956
      9 N          63.3350   90.6867   16.9071 N.3     1  UNL1       -0.3191
     10 H          62.3153   90.6847   16.8814 H       1  UNL1        0.1189
     11 H          63.6705   91.6435   17.0186 H       1  UNL1        0.1189
     12 S          63.4481   85.2839   13.4091 S.O2    1  UNL1        0.0642
     13 O          64.5061   84.8226   14.3672 O.2     1  UNL1       -0.1527
     14 O          62.3902   85.7452   12.4510 O.2     1  UNL1       -0.1527
     15 C          62.9021   81.0535   11.9752 C.ar    1  UNL1        0.0694
     16 C          63.5277   82.0762   11.0737 C.ar    1  UNL1        0.0117
     17 C          63.7097   83.4863   11.5517 C.ar    1  UNL1        0.0215
     18 C          63.2661   83.8738   12.9311 C.ar    1  UNL1        0.1327
     19 C          62.6405   82.8511   13.8327 C.ar    1  UNL1        0.0769
     20 CL         62.1969   83.2386   15.2122 Cl      1  UNL1       -0.0808
     21 C          62.4585   81.4410   13.3547 C.ar    1  UNL1        0.0230
     22 N          62.5382   78.2333   11.0193 N.1     1  UNL1       -0.1908
     23 C          62.7201   79.6434   11.4973 C.1     1  UNL1        0.1004
     24 S          64.6699   90.4188   13.5546 S.O2    1  UNL1        0.0271
     25 O          63.4715   90.5789   12.6668 O.2     1  UNL1       -0.1671
     26 O          65.8682   90.2587   14.4424 O.2     1  UNL1       -0.1671
     27 C          65.1480   91.7833   13.1553 C.ar    1  UNL1        0.1863
     28 C          65.8713   92.6447   14.1477 C.ar    1  UNL1        0.0388
     29 C          66.3495   94.0092   13.7484 C.ar    1  UNL1        0.0159
     30 C          66.1044   94.5123   12.3567 C.ar    1  UNL1        0.0769
     31 CL         66.5826   95.8768   11.9574 Cl      1  UNL1       -0.0806
     32 C          65.3811   93.6508   11.3643 C.ar    1  UNL1        0.1117
     33 N          64.9030   92.2863   11.7637 N.ar    1  UNL1       -0.2248
@<TRIPOS>BOND
     1    22    23    3
     2    23    15    1
     3    15    16   ar
     4    16    17   ar
     5    17    18   ar
     6    18    12    1
     7    12    13    2
     8    12    14    2
     9    12     1    1
    10     1     2    1
    11     2     3    1
    12     3    24    1
    13    24    25    2
    14    24    26    2
    15    24    27    1
    16    27    28   ar
    17    28    29   ar
    18    29    30   ar
    19    30    31    1
    20    30    32   ar
    21    32    33   ar
    22     3     4    1
    23     4     5    1
    24     4     8    1
    25     8     9    1
    26     4     6    1
    27    18    19   ar
    28    19    20    1
    29    19    21   ar
    30    21    15   ar
    31     6     1    1
    32    33    27   ar
    33     5     7    1
    34     9    10    1
    35     9    11    1
@<TRIPOS>MOLECULE
*****
 33 35 0 0 0
SMALL
GASTEIGER

@<TRIPOS>ATOM
      1 N          63.4009   90.1592   12.6841 N.3     1  UNL1       -0.1512
      2 C          63.5848   89.2219   11.5276 C.3     1  UNL1        0.1224
      3 C          62.2396   88.6690   11.1605 C.3     1  UNL1        0.1801
      4 C          61.2242   89.2647   12.0902 C.3     1  UNL1        0.1408
      5 O          60.0056   89.6863   12.8565 O.3     1  UNL1       -0.3822
      6 C          61.9420   90.1857   13.0318 C.3     1  UNL1        0.1257
      7 H          59.2249   89.2396   12.4935 H       1  UNL1        0.2104
      8 C          60.2518   88.4319   11.3088 C.3     1  UNL1        0.0956
      9 N          58.8234   88.3301   11.7552 N.3     1  UNL1       -0.3191
     10 H          58.7811   87.8456   12.6518 H       1  UNL1        0.1189
     11 H          58.2867   87.8092   11.0616 H       1  UNL1        0.1189
     12 S          64.4854   90.9341   13.3721 S.O2    1  UNL1        0.0642
     13 O          64.8348   89.7230   14.1853 O.2     1  UNL1       -0.1527
     14 O          64.1361   92.1451   12.5589 O.2     1  UNL1       -0.1527
     15 C          67.7390   93.2586   15.4362 C.ar    1  UNL1        0.0694
     16 C          67.8736   92.9077   13.9841 C.ar    1  UNL1        0.0117
     17 C          66.7891   92.1329   13.2961 C.ar    1  UNL1        0.0215
     18 C          65.5700   91.7089   14.0602 C.ar    1  UNL1        0.1327
     19 C          65.4354   92.0598   15.5123 C.ar    1  UNL1        0.0769
     20 CL         64.2162   91.6359   16.2765 Cl      1  UNL1       -0.0808
     21 C          66.5199   92.8347   16.2003 C.ar    1  UNL1        0.0230
     22 N          69.9081   94.8083   16.8123 N.1     1  UNL1       -0.1908
     23 C          68.8236   94.0335   16.1242 C.1     1  UNL1        0.1004
     24 S          61.9590   87.6920   10.0574 S.O2    1  UNL1        0.0271
     25 O          61.4856   88.8152    9.1831 O.2     1  UNL1       -0.1671
     26 O          62.4323   86.5689   10.9318 O.2     1  UNL1       -0.1671
     27 C          61.6784   86.7150    8.9544 C.ar    1  UNL1        0.1863
     28 C          62.7684   85.8129    8.4564 C.ar    1  UNL1        0.0388
     29 C          62.4879   84.8358    7.3533 C.ar    1  UNL1        0.0159
     30 C          61.1174   84.7610    6.7482 C.ar    1  UNL1        0.0769
     31 CL         60.8368   83.7840    5.6452 Cl      1  UNL1       -0.0806
     32 C          60.0274   85.6632    7.2463 C.ar    1  UNL1        0.1117
     33 N          60.3080   86.6402    8.3494 N.ar    1  UNL1       -0.2248
@<TRIPOS>BOND
     1    22    23    3
     2    23    15    1
     3    15    16   ar
     4    16    17   ar
     5    17    18   ar
     6    18    12    1
     7    12    13    2
     8    12    14    2
     9    12     1    1
    10     1     2    1
    11     2     3    1
    12     3    24    1
    13    24    25    2
    14    24    26    2
    15    24    27    1
    16    27    28   ar
    17    28    29   ar
    18    29    30   ar
    19    30    31    1
    20    30    32   ar
    21    32    33   ar
    22     3     4    1
    23     4     5    1
    24     4     8    1
    25     8     9    1
    26     4     6    1
    27    18    19   ar
    28    19    20    1
    29    19    21   ar
    30    21    15   ar
    31     6     1    1
    32    33    27   ar
    33     5     7    1
    34     9    10    1
    35     9    11    1
