@<TRIPOS>MOLECULE
*****
 44 47 0 0 0
SMALL
GASTEIGER

@<TRIPOS>ATOM
      1 N          64.1756   91.0032   12.7031 N.pl3   1  UNL1       -0.3043
      2 C          64.2876   89.5081   12.7469 C.3     1  UNL1        0.1123
      3 C          63.3631   88.6622   11.9225 C.3     1  UNL1        0.1149
      4 N          62.3265   89.3115   11.0541 N.am    1  UNL1       -0.2747
      5 C          61.4020   88.4657   10.2297 C.2     1  UNL1        0.2442
      6 O          60.3655   89.1150    9.3614 O.2     1  UNL1       -0.2731
      7 C          62.2145   90.8067   11.0103 C.3     1  UNL1        0.1149
      8 C          63.1391   91.6526   11.8348 C.3     1  UNL1        0.1123
      9 C          65.8903   92.9472   12.8795 C.ar    1  UNL1        0.0088
     10 C          66.8148   93.7930   13.7040 C.ar    1  UNL1       -0.0015
     11 C          66.9493   93.5407   15.1765 C.ar    1  UNL1       -0.0002
     12 C          66.1593   92.4425   15.8245 C.ar    1  UNL1        0.0012
     13 C          65.2348   91.5968   15.0000 C.ar    1  UNL1        0.0143
     14 C          65.1003   91.8491   13.5275 C.ar    1  UNL1        0.0454
     15 C          65.7558   93.1995   11.4070 C.3     1  UNL1        0.0952
     16 N          64.8286   94.2693   10.9110 N.am    1  UNL1       -0.3021
     17 C          65.3657   95.6269   10.5669 C.2     1  UNL1        0.2241
     18 O          64.4385   96.6966   10.0709 O.2     1  UNL1       -0.2750
     19 H          63.8676   94.0803   10.8113 H       1  UNL1        0.1497
     20 C          66.8300   95.9148   10.7188 C.3     1  UNL1        0.1023
     21 C          67.6502   96.2843    9.5185 C.3     1  UNL1        0.0818
     22 N          67.1910   95.8900    8.1461 N.3     1  UNL1       -0.2699
     23 C          66.3784   96.8457    7.3237 C.3     1  UNL1        0.0897
     24 C          67.5443   94.5399    7.5960 C.3     1  UNL1        0.0897
     25 C          66.5484   92.3821   10.4306 C.3     1  UNL1        0.0242
     26 C          68.9989   92.6200    9.6008 C.3     1  UNL1        0.0001
     27 C          68.0185   92.1750   10.6451 C.3     1  UNL1        0.0020
     28 C          68.5081   91.5227   11.9041 C.3     1  UNL1        0.0001
     29 C          61.5139   86.9705   10.2736 C.3     1  UNL1        0.1564
     30 N          61.6874   86.1938    9.0022 N.am    1  UNL1       -0.2727
     31 C          62.9569   85.5507    8.5281 C.3     1  UNL1        0.0943
     32 C          62.6760   84.8832    7.2145 C.3     1  UNL1        0.0311
     33 C          61.2327   85.1138    6.8767 C.3     1  UNL1        0.0870
     34 C          60.6218   85.9238    7.9816 C.2     1  UNL1        0.2260
     35 O          59.1957   86.3831    8.0532 O.2     1  UNL1       -0.2749
     36 C          61.4525   86.2521   11.5888 C.3     1  UNL1        0.0564
     37 C          62.3189   85.0514   11.8288 C.ar    1  UNL1       -0.0094
     38 C          62.1606   83.8293   10.9737 C.ar    1  UNL1       -0.0025
     39 C          63.0271   82.6286   11.2137 C.ar    1  UNL1        0.0111
     40 C          64.0519   82.6501   12.3088 C.ar    1  UNL1        0.0585
     41 CL         64.9183   81.4494   12.5488 Cl      1  UNL1       -0.0822
     42 C          64.2102   83.8722   13.1641 C.ar    1  UNL1        0.0225
     43 C          63.3437   85.0729   12.9241 C.ar    1  UNL1        0.0546
     44 CL         63.5020   86.2950   13.7792 Cl      1  UNL1       -0.0825
@<TRIPOS>BOND
     1    26    27    1
     2    27    28    1
     3    27    25    1
     4    15    25    1
     5    15    16    1
     6    16    17   am
     7    17    18    2
     8    17    20    1
     9    20    21    1
    10    21    22    1
    11    22    23    1
    12    22    24    1
    13    15     9    1
    14     9    10   ar
    15    10    11   ar
    16    11    12   ar
    17    12    13   ar
    18    13    14   ar
    19    14     1    1
    20     1     2    1
    21     2     3    1
    22     3     4    1
    23     4     5   am
    24     5     6    2
    25     5    29    1
    26    29    36    1
    27    36    37    1
    28    37    38   ar
    29    38    39   ar
    30    39    40   ar
    31    40    41    1
    32    40    42   ar
    33    42    43   ar
    34    43    44    1
    35    29    30    1
    36    30    31    1
    37    31    32    1
    38    32    33    1
    39    33    34    1
    40    34    35    2
    41     4     7    1
    42     7     8    1
    43    14     9   ar
    44     8     1    1
    45    43    37   ar
    46    34    30   am
    47    16    19    1
@<TRIPOS>MOLECULE
*****
 44 47 0 0 0
SMALL
GASTEIGER

@<TRIPOS>ATOM
      1 N          61.7667   89.3024   10.0759 N.pl3   1  UNL1       -0.3043
      2 C          61.9519   88.9646   11.5255 C.3     1  UNL1        0.1123
      3 C          62.8801   89.7826   12.3736 C.3     1  UNL1        0.1149
      4 N          63.6231   90.9385   11.7720 N.am    1  UNL1       -0.2747
      5 C          64.5512   91.7566   12.6201 C.2     1  UNL1        0.2442
      6 O          65.2942   92.9124   12.0185 O.2     1  UNL1       -0.2731
      7 C          63.4379   91.2764   10.3224 C.3     1  UNL1        0.1149
      8 C          62.5097   90.4583    9.4743 C.3     1  UNL1        0.1123
      9 C          60.8447   86.9884    9.3375 C.ar    1  UNL1        0.0088
     10 C          59.9165   86.1704    8.4894 C.ar    1  UNL1       -0.0015
     11 C          58.9821   86.8483    7.5316 C.ar    1  UNL1       -0.0002
     12 C          58.9760   88.3442    7.4219 C.ar    1  UNL1        0.0012
     13 C          59.9041   89.1622    8.2700 C.ar    1  UNL1        0.0143
     14 C          60.8385   88.4843    9.2278 C.ar    1  UNL1        0.0454
     15 C          61.7790   86.3104   10.2953 C.3     1  UNL1        0.0952
     16 N          61.3608   86.0846   11.7180 N.am    1  UNL1       -0.3021
     17 C          62.1346   85.1369   12.5858 C.2     1  UNL1        0.2241
     18 O          61.7163   84.9111   14.0085 O.2     1  UNL1       -0.2750
     19 H          60.5785   86.5584   12.0822 H       1  UNL1        0.1497
     20 C          63.3266   84.4150   12.0309 C.3     1  UNL1        0.1023
     21 C          63.8923   83.2315   12.7584 C.3     1  UNL1        0.0818
     22 N          63.0719   81.9857   12.9163 N.3     1  UNL1       -0.2699
     23 C          62.9455   81.0212   11.7744 C.3     1  UNL1        0.0897
     24 C          62.3778   81.7044   14.2160 C.3     1  UNL1        0.0897
     25 C          63.1316   85.8584    9.8305 C.3     1  UNL1        0.0242
     26 C          63.8299   83.4379    9.1949 C.3     1  UNL1        0.0001
     27 C          63.2472   84.7653    8.8097 C.3     1  UNL1        0.0020
     28 C          62.7800   84.9997    7.4037 C.3     1  UNL1        0.0001
     29 C          64.7364   91.4187   14.0698 C.3     1  UNL1        0.1564
     30 N          66.0023   91.8070   14.7746 N.am    1  UNL1       -0.2727
     31 C          67.3952   91.6301   14.2469 C.3     1  UNL1        0.0943
     32 C          68.3513   92.1542   15.2770 C.3     1  UNL1        0.0311
     33 C          67.5492   92.6550   16.4415 C.3     1  UNL1        0.0870
     34 C          66.0975   92.4405   16.1310 C.2     1  UNL1        0.2260
     35 O          64.9436   92.7968   17.0207 O.2     1  UNL1       -0.2749
     36 C          63.6558   90.6926   14.8147 C.3     1  UNL1        0.0564
     37 C          63.8069   89.2319   15.1203 C.ar    1  UNL1       -0.0094
     38 C          64.5023   88.3295   14.1445 C.ar    1  UNL1       -0.0025
     39 C          64.6534   86.8688   14.4501 C.ar    1  UNL1        0.0111
     40 C          64.1091   86.3104   15.7314 C.ar    1  UNL1        0.0585
     41 CL         64.2602   84.8496   16.0370 Cl      1  UNL1       -0.0822
     42 C          63.4136   87.2127   16.7073 C.ar    1  UNL1        0.0225
     43 C          63.2625   88.6735   16.4017 C.ar    1  UNL1        0.0546
     44 CL         62.5671   89.5758   17.3774 Cl      1  UNL1       -0.0825
@<TRIPOS>BOND
     1    26    27    1
     2    27    28    1
     3    27    25    1
     4    15    25    1
     5    15    16    1
     6    16    17   am
     7    17    18    2
     8    17    20    1
     9    20    21    1
    10    21    22    1
    11    22    23    1
    12    22    24    1
    13    15     9    1
    14     9    10   ar
    15    10    11   ar
    16    11    12   ar
    17    12    13   ar
    18    13    14   ar
    19    14     1    1
    20     1     2    1
    21     2     3    1
    22     3     4    1
    23     4     5   am
    24     5     6    2
    25     5    29    1
    26    29    36    1
    27    36    37    1
    28    37    38   ar
    29    38    39   ar
    30    39    40   ar
    31    40    41    1
    32    40    42   ar
    33    42    43   ar
    34    43    44    1
    35    29    30    1
    36    30    31    1
    37    31    32    1
    38    32    33    1
    39    33    34    1
    40    34    35    2
    41     4     7    1
    42     7     8    1
    43    14     9   ar
    44     8     1    1
    45    43    37   ar
    46    34    30   am
    47    16    19    1
@<TRIPOS>MOLECULE
*****
 44 47 0 0 0
SMALL
GASTEIGER

@<TRIPOS>ATOM
      1 N          61.4961   86.3751    9.4471 N.pl3   1  UNL1       -0.3043
      2 C          61.1975   86.0482   10.8803 C.3     1  UNL1        0.1123
      3 C          62.0830   85.1003   11.6335 C.3     1  UNL1        0.1149
      4 N          63.2671   84.4792   10.9535 N.am    1  UNL1       -0.2747
      5 C          64.1525   83.5313   11.7068 C.2     1  UNL1        0.2442
      6 O          65.3366   82.9103   11.0268 O.2     1  UNL1       -0.2731
      7 C          63.5656   84.8061    9.5204 C.3     1  UNL1        0.1149
      8 C          62.6801   85.7540    8.7671 C.3     1  UNL1        0.1123
      9 C          60.6434   88.7895    9.0073 C.ar    1  UNL1        0.0088
     10 C          59.7578   89.7374    8.2541 C.ar    1  UNL1       -0.0015
     11 C          58.8395   89.2187    7.1874 C.ar    1  UNL1       -0.0002
     12 C          58.8067   87.7523    6.8740 C.ar    1  UNL1        0.0012
     13 C          59.6922   86.8044    7.6272 C.ar    1  UNL1        0.0143
     14 C          60.6105   87.3230    8.6939 C.ar    1  UNL1        0.0454
     15 C          61.5617   89.3081   10.0739 C.3     1  UNL1        0.0952
     16 N          62.8772   89.9226    9.6973 N.am    1  UNL1       -0.3021
     17 C          63.5595   90.8700   10.6390 C.2     1  UNL1        0.2241
     18 O          64.8750   91.4844   10.2623 O.2     1  UNL1       -0.2750
     19 H          63.2928   89.7040    8.8320 H       1  UNL1        0.1497
     20 C          62.9263   91.2030   11.9574 C.3     1  UNL1        0.1023
     21 C          63.6252   90.8475   13.2361 C.3     1  UNL1        0.0818
     22 N          64.7230   91.7252   13.7599 N.3     1  UNL1       -0.2699
     23 C          65.3831   92.7219   12.8540 C.3     1  UNL1        0.0897
     24 C          65.1608   91.6061   15.1897 C.3     1  UNL1        0.0897
     25 C          61.1645   89.2123   11.5172 C.3     1  UNL1        0.0242
     26 C          59.2012   90.9133   11.5640 C.3     1  UNL1        0.0001
     27 C          59.7716   89.5773   11.9376 C.3     1  UNL1        0.0020
     28 C          58.9492   88.6061   12.7316 C.3     1  UNL1        0.0001
     29 C          63.8540   83.2044   13.1400 C.3     1  UNL1        0.1564
     30 N          62.7409   82.2571   13.4770 N.am    1  UNL1       -0.2727
     31 C          61.7535   82.4189   14.5945 C.3     1  UNL1        0.0943
     32 C          60.8221   81.2435   14.5639 C.3     1  UNL1        0.0311
     33 C          61.2340   80.3553   13.4274 C.3     1  UNL1        0.0870
     34 C          62.4198   80.9818   12.7557 C.2     1  UNL1        0.2260
     35 O          63.1554   80.4298   11.5707 O.2     1  UNL1       -0.2749
     36 C          64.6685   83.8249   14.2361 C.3     1  UNL1        0.0564
     37 C          64.2771   85.1594   14.7979 C.ar    1  UNL1       -0.0094
     38 C          64.6495   86.4176   14.0711 C.ar    1  UNL1       -0.0025
     39 C          64.2580   87.7522   14.6329 C.ar    1  UNL1        0.0111
     40 C          63.4942   87.8286   15.9216 C.ar    1  UNL1        0.0585
     41 CL         63.1027   89.1632   16.4834 Cl      1  UNL1       -0.0822
     42 C          63.1218   86.5704   16.6485 C.ar    1  UNL1        0.0225
     43 C          63.5132   85.2358   16.0867 C.ar    1  UNL1        0.0546
     44 CL         63.1409   83.9777   16.8135 Cl      1  UNL1       -0.0825
@<TRIPOS>BOND
     1    26    27    1
     2    27    28    1
     3    27    25    1
     4    15    25    1
     5    15    16    1
     6    16    17   am
     7    17    18    2
     8    17    20    1
     9    20    21    1
    10    21    22    1
    11    22    23    1
    12    22    24    1
    13    15     9    1
    14     9    10   ar
    15    10    11   ar
    16    11    12   ar
    17    12    13   ar
    18    13    14   ar
    19    14     1    1
    20     1     2    1
    21     2     3    1
    22     3     4    1
    23     4     5   am
    24     5     6    2
    25     5    29    1
    26    29    36    1
    27    36    37    1
    28    37    38   ar
    29    38    39   ar
    30    39    40   ar
    31    40    41    1
    32    40    42   ar
    33    42    43   ar
    34    43    44    1
    35    29    30    1
    36    30    31    1
    37    31    32    1
    38    32    33    1
    39    33    34    1
    40    34    35    2
    41     4     7    1
    42     7     8    1
    43    14     9   ar
    44     8     1    1
    45    43    37   ar
    46    34    30   am
    47    16    19    1
@<TRIPOS>MOLECULE
*****
 44 47 0 0 0
SMALL
GASTEIGER

@<TRIPOS>ATOM
      1 N          61.7013   88.9023   10.5971 N.pl3   1  UNL1       -0.3043
      2 C          62.8742   89.7369   10.1755 C.3     1  UNL1        0.1123
      3 C          63.5961   90.5800   11.1844 C.3     1  UNL1        0.1149
      4 N          63.1452   90.5884   12.6151 N.am    1  UNL1       -0.2747
      5 C          63.8672   91.4314   13.6240 C.2     1  UNL1        0.2442
      6 O          63.4163   91.4398   15.0546 O.2     1  UNL1       -0.2731
      7 C          61.9724   89.7537   13.0367 C.3     1  UNL1        0.1149
      8 C          61.2504   88.9107   12.0276 C.3     1  UNL1        0.1123
      9 C          61.1830   86.5732    9.5689 C.ar    1  UNL1        0.0088
     10 C          60.4610   85.7303    8.5599 C.ar    1  UNL1       -0.0015
     11 C          59.5354   86.3732    7.5701 C.ar    1  UNL1       -0.0002
     12 C          59.3318   87.8592    7.5892 C.ar    1  UNL1        0.0012
     13 C          60.0537   88.7022    8.5982 C.ar    1  UNL1        0.0143
     14 C          60.9793   88.0592    9.5880 C.ar    1  UNL1        0.0454
     15 C          62.1086   85.9303   10.5588 C.3     1  UNL1        0.0952
     16 N          63.3445   85.2264   10.0825 N.am    1  UNL1       -0.3021
     17 C          63.5214   83.7604   10.3461 C.2     1  UNL1        0.2241
     18 O          64.7574   83.0565    9.8697 O.2     1  UNL1       -0.2750
     19 H          64.0396   85.7266    9.5968 H       1  UNL1        0.1497
     20 C          62.4624   82.9982   11.0861 C.3     1  UNL1        0.1023
     21 C          62.7280   81.5933   11.5395 C.3     1  UNL1        0.0818
     22 N          62.7138   81.2620   13.0024 N.3     1  UNL1       -0.2699
     23 C          61.4079   81.0861   13.7189 C.3     1  UNL1        0.0897
     24 C          64.0057   81.1067   13.7488 C.3     1  UNL1        0.0897
     25 C          61.7982   85.9912   12.0251 C.3     1  UNL1        0.0242
     26 C          63.9156   86.9788   13.1615 C.3     1  UNL1        0.0001
     27 C          62.9050   85.8781   13.0313 C.3     1  UNL1        0.0020
     28 C          63.0010   84.6643   13.9073 C.3     1  UNL1        0.0001
     29 C          65.0400   92.2661   13.2024 C.3     1  UNL1        0.1564
     30 N          66.2196   92.4181   14.1164 N.am    1  UNL1       -0.2727
     31 C          66.8810   91.3182   14.8927 C.3     1  UNL1        0.0943
     32 C          68.0151   91.9170   15.6707 C.3     1  UNL1        0.0311
     33 C          68.0546   93.3871   15.3751 C.3     1  UNL1        0.0870
     34 C          66.9449   93.6968   14.4145 C.2     1  UNL1        0.2260
     35 O          66.6180   95.0479   13.8510 O.2     1  UNL1       -0.2749
     36 C          65.0333   92.9487   11.8668 C.3     1  UNL1        0.0564
     37 C          66.2274   92.8441   10.9649 C.ar    1  UNL1       -0.0094
     38 C          67.0999   91.6250   11.0142 C.ar    1  UNL1       -0.0025
     39 C          68.2940   91.5203   10.1124 C.ar    1  UNL1        0.0111
     40 C          68.6155   92.6347    9.1613 C.ar    1  UNL1        0.0585
     41 CL         69.8096   92.5301    8.2595 Cl      1  UNL1       -0.0822
     42 C          67.7430   93.8539    9.1120 C.ar    1  UNL1        0.0225
     43 C          66.5489   93.9586   10.0138 C.ar    1  UNL1        0.0546
     44 CL         65.6764   95.1776    9.9645 Cl      1  UNL1       -0.0825
@<TRIPOS>BOND
     1    26    27    1
     2    27    28    1
     3    27    25    1
     4    15    25    1
     5    15    16    1
     6    16    17   am
     7    17    18    2
     8    17    20    1
     9    20    21    1
    10    21    22    1
    11    22    23    1
    12    22    24    1
    13    15     9    1
    14     9    10   ar
    15    10    11   ar
    16    11    12   ar
    17    12    13   ar
    18    13    14   ar
    19    14     1    1
    20     1     2    1
    21     2     3    1
    22     3     4    1
    23     4     5   am
    24     5     6    2
    25     5    29    1
    26    29    36    1
    27    36    37    1
    28    37    38   ar
    29    38    39   ar
    30    39    40   ar
    31    40    41    1
    32    40    42   ar
    33    42    43   ar
    34    43    44    1
    35    29    30    1
    36    30    31    1
    37    31    32    1
    38    32    33    1
    39    33    34    1
    40    34    35    2
    41     4     7    1
    42     7     8    1
    43    14     9   ar
    44     8     1    1
    45    43    37   ar
    46    34    30   am
    47    16    19    1
@<TRIPOS>MOLECULE
*****
 44 47 0 0 0
SMALL
GASTEIGER

@<TRIPOS>ATOM
      1 N          61.8163   89.1444   10.2368 N.pl3   1  UNL1       -0.3043
      2 C          62.4234   88.4042   11.3916 C.3     1  UNL1        0.1123
      3 C          63.3518   89.1135   12.3323 C.3     1  UNL1        0.1149
      4 N          63.6731   90.5630   12.1182 N.am    1  UNL1       -0.2747
      5 C          64.6015   91.2723   13.0589 C.2     1  UNL1        0.2442
      6 O          64.9228   92.7217   12.8448 O.2     1  UNL1       -0.2731
      7 C          63.0660   91.3032   10.9634 C.3     1  UNL1        0.1149
      8 C          62.1376   90.5938   10.0227 C.3     1  UNL1        0.1123
      9 C          60.8597   86.9358    9.2585 C.ar    1  UNL1        0.0088
     10 C          59.9313   86.2265    8.3178 C.ar    1  UNL1       -0.0015
     11 C          59.0311   87.0165    7.4147 C.ar    1  UNL1       -0.0002
     12 C          59.0593   88.5157    7.4522 C.ar    1  UNL1        0.0012
     13 C          59.9877   89.2250    8.3929 C.ar    1  UNL1        0.0143
     14 C          60.8879   88.4350    9.2960 C.ar    1  UNL1        0.0454
     15 C          61.7599   86.1459   10.1616 C.3     1  UNL1        0.0952
     16 N          61.3183   85.8124   11.5557 N.am    1  UNL1       -0.3021
     17 C          62.2558   85.1079   12.4911 C.2     1  UNL1        0.2241
     18 O          61.8141   84.7745   13.8853 O.2     1  UNL1       -0.2750
     19 H          60.4132   86.0559   11.8569 H       1  UNL1        0.1497
     20 C          63.6348   84.7370   12.0323 C.3     1  UNL1        0.1023
     21 C          64.3784   83.6265   12.7134 C.3     1  UNL1        0.0818
     22 N          63.6633   82.3606   13.0821 N.3     1  UNL1       -0.2699
     23 C          63.1069   81.4734   12.0082 C.3     1  UNL1        0.0897
     24 C          63.5044   81.9819   14.5248 C.3     1  UNL1        0.0897
     25 C          63.1016   85.6893    9.6705 C.3     1  UNL1        0.0242
     26 C          62.7950   84.7406    7.2713 C.3     1  UNL1        0.0001
     27 C          63.1974   84.5468    8.7032 C.3     1  UNL1        0.0020
     28 C          63.6955   83.2104    9.1680 C.3     1  UNL1        0.0001
     29 C          65.2086   90.5321   14.2137 C.3     1  UNL1        0.1564
     30 N          64.3244   89.8893   15.2408 N.am    1  UNL1       -0.2727
     31 C          64.0579   88.4196   15.3792 C.3     1  UNL1        0.0943
     32 C          63.1202   88.2253   16.5337 C.3     1  UNL1        0.0311
     33 C          62.8071   89.5749   17.1088 C.3     1  UNL1        0.0870
     34 C          63.5513   90.6032   16.3097 C.2     1  UNL1        0.2260
     35 O          63.5268   92.0853   16.5393 O.2     1  UNL1       -0.2749
     36 C          66.7000   90.4348   14.3415 C.3     1  UNL1        0.0564
     37 C          67.4888   91.6112   14.8353 C.ar    1  UNL1       -0.0094
     38 C          67.0765   92.3157   16.0938 C.ar    1  UNL1       -0.0025
     39 C          67.8654   93.4921   16.5876 C.ar    1  UNL1        0.0111
     40 C          69.0664   93.9640   15.8229 C.ar    1  UNL1        0.0585
     41 CL         69.8552   95.1404   16.3167 Cl      1  UNL1       -0.0822
     42 C          69.4787   93.2595   14.5644 C.ar    1  UNL1        0.0225
     43 C          68.6899   92.0831   14.0706 C.ar    1  UNL1        0.0546
     44 CL         69.1022   91.3786   12.8122 Cl      1  UNL1       -0.0825
@<TRIPOS>BOND
     1    26    27    1
     2    27    28    1
     3    27    25    1
     4    15    25    1
     5    15    16    1
     6    16    17   am
     7    17    18    2
     8    17    20    1
     9    20    21    1
    10    21    22    1
    11    22    23    1
    12    22    24    1
    13    15     9    1
    14     9    10   ar
    15    10    11   ar
    16    11    12   ar
    17    12    13   ar
    18    13    14   ar
    19    14     1    1
    20     1     2    1
    21     2     3    1
    22     3     4    1
    23     4     5   am
    24     5     6    2
    25     5    29    1
    26    29    36    1
    27    36    37    1
    28    37    38   ar
    29    38    39   ar
    30    39    40   ar
    31    40    41    1
    32    40    42   ar
    33    42    43   ar
    34    43    44    1
    35    29    30    1
    36    30    31    1
    37    31    32    1
    38    32    33    1
    39    33    34    1
    40    34    35    2
    41     4     7    1
    42     7     8    1
    43    14     9   ar
    44     8     1    1
    45    43    37   ar
    46    34    30   am
    47    16    19    1
@<TRIPOS>MOLECULE
*****
 44 47 0 0 0
SMALL
GASTEIGER

@<TRIPOS>ATOM
      1 N          62.0066   89.0653   10.7154 N.pl3   1  UNL1       -0.3043
      2 C          63.2901   89.6777   10.2384 C.3     1  UNL1        0.1123
      3 C          64.1503   90.4540   11.1910 C.3     1  UNL1        0.1149
      4 N          63.7269   90.6180   12.6206 N.am    1  UNL1       -0.2747
      5 C          64.5870   91.3943   13.5732 C.2     1  UNL1        0.2442
      6 O          64.1636   91.5582   15.0028 O.2     1  UNL1       -0.2731
      7 C          62.4433   90.0056   13.0976 C.3     1  UNL1        0.1149
      8 C          61.5832   89.2292   12.1450 C.3     1  UNL1        0.1123
      9 C          61.1518   86.7894    9.7989 C.ar    1  UNL1        0.0088
     10 C          60.2917   86.0131    8.8463 C.ar    1  UNL1       -0.0015
     11 C          59.4263   86.7364    7.8574 C.ar    1  UNL1       -0.0002
     12 C          59.4209   88.2359    7.8212 C.ar    1  UNL1        0.0012
     13 C          60.2810   89.0122    8.7738 C.ar    1  UNL1        0.0143
     14 C          61.1465   88.2889    9.7627 C.ar    1  UNL1        0.0454
     15 C          62.0173   86.0662   10.7878 C.3     1  UNL1        0.0952
     16 N          63.3151   85.4583   10.3451 N.am    1  UNL1       -0.3021
     17 C          63.5051   83.9715   10.4021 C.2     1  UNL1        0.2241
     18 O          64.8030   83.3637    9.9593 O.2     1  UNL1       -0.2750
     19 H          64.0423   86.0352   10.0171 H       1  UNL1        0.1497
     20 C          62.3971   83.0925   10.9019 C.3     1  UNL1        0.1023
     21 C          62.6688   81.6526   11.2228 C.3     1  UNL1        0.0818
     22 N          63.1917   81.2715   12.5760 N.3     1  UNL1       -0.2699
     23 C          64.4798   81.8566   13.0744 C.3     1  UNL1        0.0897
     24 C          62.4265   80.3053   13.4309 C.3     1  UNL1        0.0897
     25 C          61.5849   85.9507   12.2195 C.3     1  UNL1        0.0242
     26 C          62.3368   84.6088   14.3133 C.3     1  UNL1        0.0001
     27 C          62.5991   85.6730   13.2892 C.3     1  UNL1        0.0020
     28 C          63.8755   86.4595   13.3349 C.3     1  UNL1        0.0001
     29 C          65.8705   92.0066   13.0962 C.3     1  UNL1        0.1564
     30 N          66.7532   92.7438   14.0592 N.am    1  UNL1       -0.2727
     31 C          67.0262   94.2187   14.0534 C.3     1  UNL1        0.0943
     32 C          67.9596   94.5219   15.1877 C.3     1  UNL1        0.0311
     33 C          68.2635   93.2343   15.8947 C.3     1  UNL1        0.0870
     34 C          67.5179   92.1354   15.1972 C.2     1  UNL1        0.2260
     35 O          67.5342   90.6831   15.5720 O.2     1  UNL1       -0.2749
     36 C          66.2714   91.8819   11.6562 C.3     1  UNL1        0.0564
     37 C          66.6194   93.1082   10.8656 C.ar    1  UNL1       -0.0094
     38 C          65.9146   94.4033   11.1411 C.ar    1  UNL1       -0.0025
     39 C          66.2627   95.6296   10.3505 C.ar    1  UNL1        0.0111
     40 C          67.3155   95.5608    9.2844 C.ar    1  UNL1        0.0585
     41 CL         67.6636   96.7871    8.4938 Cl      1  UNL1       -0.0822
     42 C          68.0204   94.2657    9.0088 C.ar    1  UNL1        0.0225
     43 C          67.6724   93.0394    9.7994 C.ar    1  UNL1        0.0546
     44 CL         68.3772   91.7443    9.5239 Cl      1  UNL1       -0.0825
@<TRIPOS>BOND
     1    26    27    1
     2    27    28    1
     3    27    25    1
     4    15    25    1
     5    15    16    1
     6    16    17   am
     7    17    18    2
     8    17    20    1
     9    20    21    1
    10    21    22    1
    11    22    23    1
    12    22    24    1
    13    15     9    1
    14     9    10   ar
    15    10    11   ar
    16    11    12   ar
    17    12    13   ar
    18    13    14   ar
    19    14     1    1
    20     1     2    1
    21     2     3    1
    22     3     4    1
    23     4     5   am
    24     5     6    2
    25     5    29    1
    26    29    36    1
    27    36    37    1
    28    37    38   ar
    29    38    39   ar
    30    39    40   ar
    31    40    41    1
    32    40    42   ar
    33    42    43   ar
    34    43    44    1
    35    29    30    1
    36    30    31    1
    37    31    32    1
    38    32    33    1
    39    33    34    1
    40    34    35    2
    41     4     7    1
    42     7     8    1
    43    14     9   ar
    44     8     1    1
    45    43    37   ar
    46    34    30   am
    47    16    19    1
@<TRIPOS>MOLECULE
*****
 44 47 0 0 0
SMALL
GASTEIGER

@<TRIPOS>ATOM
      1 N          61.2876   86.7353    9.3145 N.pl3   1  UNL1       -0.3043
      2 C          60.9515   86.4548   10.7492 C.3     1  UNL1        0.1123
      3 C          61.7872   85.4934   11.5412 C.3     1  UNL1        0.1149
      4 N          62.9591   84.8124   10.8986 N.am    1  UNL1       -0.2747
      5 C          63.7948   83.8510   11.6906 C.2     1  UNL1        0.2442
      6 O          64.9666   83.1701   11.0479 O.2     1  UNL1       -0.2731
      7 C          63.2952   85.0929    9.4639 C.3     1  UNL1        0.1149
      8 C          62.4595   86.0543    8.6718 C.3     1  UNL1        0.1123
      9 C          60.4162   89.1477    8.9011 C.ar    1  UNL1        0.0088
     10 C          59.5805   90.1090    8.1091 C.ar    1  UNL1       -0.0015
     11 C          58.7804   89.6194    6.9385 C.ar    1  UNL1       -0.0002
     12 C          58.8161   88.1684    6.5600 C.ar    1  UNL1        0.0012
     13 C          59.6518   87.2071    7.3520 C.ar    1  UNL1        0.0143
     14 C          60.4519   87.6967    8.5225 C.ar    1  UNL1        0.0454
     15 C          61.2163   89.6373   10.0716 C.3     1  UNL1        0.0952
     16 N          62.4497   90.4604    9.8454 N.am    1  UNL1       -0.3021
     17 C          63.3066   90.8629   11.0089 C.2     1  UNL1        0.2241
     18 O          64.5400   91.6861   10.7826 O.2     1  UNL1       -0.2750
     19 H          62.6967   90.7366    8.9333 H       1  UNL1        0.1497
     20 C          62.9302   90.4422   12.3986 C.3     1  UNL1        0.1023
     21 C          63.9721   89.8815   13.3206 C.3     1  UNL1        0.0818
     22 N          64.6062   90.7596   14.3582 N.3     1  UNL1       -0.2699
     23 C          63.9365   90.9551   15.6862 C.3     1  UNL1        0.0897
     24 C          65.9100   91.4423   14.0680 C.3     1  UNL1        0.0897
     25 C          60.7830   89.3038   11.4684 C.3     1  UNL1        0.0242
     26 C          58.6239   88.8808   12.8501 C.3     1  UNL1        0.0001
     27 C          59.4505   89.7732   11.9726 C.3     1  UNL1        0.0020
     28 C          58.9447   91.1351   11.5991 C.3     1  UNL1        0.0001
     29 C          63.4586   83.5706   13.1253 C.3     1  UNL1        0.1564
     30 N          63.8465   84.5512   14.1919 N.am    1  UNL1       -0.2727
     31 C          65.2001   85.1732   14.3679 C.3     1  UNL1        0.0943
     32 C          65.1390   86.0884   15.5547 C.3     1  UNL1        0.0311
     33 C          63.7476   86.0322   16.1122 C.3     1  UNL1        0.0870
     34 C          62.9488   85.0821   15.2700 C.2     1  UNL1        0.2260
     35 O          61.5057   84.7256   15.4707 O.2     1  UNL1       -0.2749
     36 C          62.7347   82.3095   13.4933 C.3     1  UNL1        0.0564
     37 C          62.7433   81.1388   12.5555 C.ar    1  UNL1       -0.0094
     38 C          63.0007   81.3511   11.0932 C.ar    1  UNL1       -0.0025
     39 C          63.0094   80.1804   10.1554 C.ar    1  UNL1        0.0111
     40 C          62.7607   78.7973   10.6801 C.ar    1  UNL1        0.0585
     41 CL         62.7694   77.6266    9.7423 Cl      1  UNL1       -0.0822
     42 C          62.5032   78.5850   12.1425 C.ar    1  UNL1        0.0225
     43 C          62.4946   79.7557   13.0803 C.ar    1  UNL1        0.0546
     44 CL         62.2371   79.5434   14.5426 Cl      1  UNL1       -0.0825
@<TRIPOS>BOND
     1    26    27    1
     2    27    28    1
     3    27    25    1
     4    15    25    1
     5    15    16    1
     6    16    17   am
     7    17    18    2
     8    17    20    1
     9    20    21    1
    10    21    22    1
    11    22    23    1
    12    22    24    1
    13    15     9    1
    14     9    10   ar
    15    10    11   ar
    16    11    12   ar
    17    12    13   ar
    18    13    14   ar
    19    14     1    1
    20     1     2    1
    21     2     3    1
    22     3     4    1
    23     4     5   am
    24     5     6    2
    25     5    29    1
    26    29    36    1
    27    36    37    1
    28    37    38   ar
    29    38    39   ar
    30    39    40   ar
    31    40    41    1
    32    40    42   ar
    33    42    43   ar
    34    43    44    1
    35    29    30    1
    36    30    31    1
    37    31    32    1
    38    32    33    1
    39    33    34    1
    40    34    35    2
    41     4     7    1
    42     7     8    1
    43    14     9   ar
    44     8     1    1
    45    43    37   ar
    46    34    30   am
    47    16    19    1
@<TRIPOS>MOLECULE
*****
 44 47 0 0 0
SMALL
GASTEIGER

@<TRIPOS>ATOM
      1 N          61.6055   86.4887    9.7628 N.pl3   1  UNL1       -0.3043
      2 C          61.3479   86.0761   11.1817 C.3     1  UNL1        0.1123
      3 C          62.1346   84.9537   11.7910 C.3     1  UNL1        0.1149
      4 N          63.1790   84.2439   10.9813 N.am    1  UNL1       -0.2747
      5 C          63.9657   83.1215   11.5906 C.2     1  UNL1        0.2442
      6 O          65.0100   82.4117   10.7810 O.2     1  UNL1       -0.2731
      7 C          63.4366   84.6565    9.5624 C.3     1  UNL1        0.1149
      8 C          62.6498   85.7790    8.9531 C.3     1  UNL1        0.1123
      9 C          60.9024   88.9898    9.7387 C.ar    1  UNL1        0.0088
     10 C          60.1156   90.1121    9.1294 C.ar    1  UNL1       -0.0015
     11 C          59.2452   89.8559    7.9349 C.ar    1  UNL1       -0.0002
     12 C          59.1616   88.4774    7.3497 C.ar    1  UNL1        0.0012
     13 C          59.9484   87.3550    7.9590 C.ar    1  UNL1        0.0143
     14 C          60.8187   87.6112    9.1535 C.ar    1  UNL1        0.0454
     15 C          61.7727   89.2460   10.9332 C.3     1  UNL1        0.0952
     16 N          61.1801   89.2267   12.3110 N.am    1  UNL1       -0.3021
     17 C          62.0583   89.4390   13.5083 C.2     1  UNL1        0.2241
     18 O          61.4656   89.4197   14.8861 O.2     1  UNL1       -0.2750
     19 H          60.2146   89.0747   12.4295 H       1  UNL1        0.1497
     20 C          63.5293   89.6706   13.3278 C.3     1  UNL1        0.1023
     21 C          64.4380   89.6863   14.5211 C.3     1  UNL1        0.0818
     22 N          64.7462   90.9815   15.2121 N.3     1  UNL1       -0.2699
     23 C          65.8419   91.8655   14.6946 C.3     1  UNL1        0.0897
     24 C          63.9586   91.3926   16.4208 C.3     1  UNL1        0.0897
     25 C          63.2357   89.5214   10.7499 C.3     1  UNL1        0.0242
     26 C          64.8767   91.4579   11.3044 C.3     1  UNL1        0.0001
     27 C          63.7119   90.9257   10.5234 C.3     1  UNL1        0.0020
     28 C          63.0233   91.7978    9.5158 C.3     1  UNL1        0.0001
     29 C          63.7081   82.7089   13.0096 C.3     1  UNL1        0.1564
     30 N          62.5987   81.7488   13.3218 N.am    1  UNL1       -0.2727
     31 C          61.5422   81.9332   14.3705 C.3     1  UNL1        0.0943
     32 C          60.6416   80.7341   14.3371 C.3     1  UNL1        0.0311
     33 C          61.1416   79.8086   13.2677 C.3     1  UNL1        0.0870
     34 C          62.3512   80.4358   12.6403 C.2     1  UNL1        0.2260
     35 O          63.1694   79.8522   11.5268 O.2     1  UNL1       -0.2749
     36 C          64.5598   83.2563   14.1162 C.3     1  UNL1        0.0564
     37 C          64.0330   84.3502   14.9972 C.ar    1  UNL1       -0.0094
     38 C          62.6855   84.2110   15.6412 C.ar    1  UNL1       -0.0025
     39 C          62.1587   85.3049   16.5221 C.ar    1  UNL1        0.0111
     40 C          62.9794   86.5378   16.7590 C.ar    1  UNL1        0.0585
     41 CL         62.4526   87.6317   17.6399 Cl      1  UNL1       -0.0822
     42 C          64.3270   86.6770   16.1149 C.ar    1  UNL1        0.0225
     43 C          64.8538   85.5832   15.2340 C.ar    1  UNL1        0.0546
     44 CL         66.2013   85.7224   14.5900 Cl      1  UNL1       -0.0825
@<TRIPOS>BOND
     1    26    27    1
     2    27    28    1
     3    27    25    1
     4    15    25    1
     5    15    16    1
     6    16    17   am
     7    17    18    2
     8    17    20    1
     9    20    21    1
    10    21    22    1
    11    22    23    1
    12    22    24    1
    13    15     9    1
    14     9    10   ar
    15    10    11   ar
    16    11    12   ar
    17    12    13   ar
    18    13    14   ar
    19    14     1    1
    20     1     2    1
    21     2     3    1
    22     3     4    1
    23     4     5   am
    24     5     6    2
    25     5    29    1
    26    29    36    1
    27    36    37    1
    28    37    38   ar
    29    38    39   ar
    30    39    40   ar
    31    40    41    1
    32    40    42   ar
    33    42    43   ar
    34    43    44    1
    35    29    30    1
    36    30    31    1
    37    31    32    1
    38    32    33    1
    39    33    34    1
    40    34    35    2
    41     4     7    1
    42     7     8    1
    43    14     9   ar
    44     8     1    1
    45    43    37   ar
    46    34    30   am
    47    16    19    1
@<TRIPOS>MOLECULE
*****
 44 47 0 0 0
SMALL
GASTEIGER

@<TRIPOS>ATOM
      1 N          63.5559   87.7566   13.6159 N.pl3   1  UNL1       -0.3043
      2 C          64.5390   88.7696   14.1232 C.3     1  UNL1        0.1123
      3 C          64.7764   90.0351   13.3538 C.3     1  UNL1        0.1149
      4 N          64.0308   90.2876   12.0769 N.am    1  UNL1       -0.2747
      5 C          64.2683   91.5531   11.3075 C.2     1  UNL1        0.2442
      6 O          63.5226   91.8056   10.0307 O.2     1  UNL1       -0.2731
      7 C          63.0477   89.2746   11.5696 C.3     1  UNL1        0.1149
      8 C          62.8103   88.0091   12.3391 C.3     1  UNL1        0.1123
      9 C          62.9450   85.2317   13.6611 C.ar    1  UNL1        0.0088
     10 C          62.7076   83.9662   14.4306 C.ar    1  UNL1       -0.0015
     11 C          62.8437   83.9601   15.9244 C.ar    1  UNL1       -0.0002
     12 C          63.2171   85.2194   16.6487 C.ar    1  UNL1        0.0012
     13 C          63.4545   86.4848   15.8792 C.ar    1  UNL1        0.0143
     14 C          63.3185   86.4910   14.3854 C.ar    1  UNL1        0.0454
     15 C          62.8090   85.2379   12.1673 C.3     1  UNL1        0.0952
     16 N          63.8834   84.6318   11.3138 N.am    1  UNL1       -0.3021
     17 C          63.7879   83.1942   10.8964 C.2     1  UNL1        0.2241
     18 O          64.8624   82.5882   10.0429 O.2     1  UNL1       -0.2750
     19 H          64.6511   85.1776   11.0277 H       1  UNL1        0.1497
     20 C          62.6182   82.3627   11.3324 C.3     1  UNL1        0.1023
     21 C          62.8417   80.9904   11.8951 C.3     1  UNL1        0.0818
     22 N          62.5787   80.7233   13.3475 N.3     1  UNL1       -0.2699
     23 C          61.1717   80.7227   13.8672 C.3     1  UNL1        0.0897
     24 C          63.7229   80.4568   14.2802 C.3     1  UNL1        0.0897
     25 C          61.5986   85.8501   11.5269 C.3     1  UNL1        0.0242
     26 C          60.4745   86.9247    9.4457 C.3     1  UNL1        0.0001
     27 C          61.5869   86.1215   10.0517 C.3     1  UNL1        0.0020
     28 C          62.6877   85.5898    9.1825 C.3     1  UNL1        0.0001
     29 C          65.2513   92.5661   11.8149 C.3     1  UNL1        0.1564
     30 N          66.2803   93.1423   10.8880 N.am    1  UNL1       -0.2727
     31 C          67.2997   92.3647   10.1094 C.3     1  UNL1        0.0943
     32 C          68.1200   93.3391    9.3172 C.3     1  UNL1        0.0311
     33 C          67.6076   94.7190    9.6062 C.3     1  UNL1        0.0870
     34 C          66.4706   94.5973   10.5770 C.2     1  UNL1        0.2260
     35 O          65.6653   95.7316   11.1382 O.2     1  UNL1       -0.2749
     36 C          65.2054   93.0029   13.2491 C.3     1  UNL1        0.0564
     37 C          66.3941   92.7857   14.1377 C.ar    1  UNL1       -0.0094
     38 C          67.7791   92.8401   13.5643 C.ar    1  UNL1       -0.0025
     39 C          68.9679   92.6229   14.4529 C.ar    1  UNL1        0.0111
     40 C          68.7717   92.3513   15.9150 C.ar    1  UNL1        0.0585
     41 CL         69.9604   92.1340   16.8036 Cl      1  UNL1       -0.0822
     42 C          67.3867   92.2968   16.4885 C.ar    1  UNL1        0.0225
     43 C          66.1979   92.5140   15.5998 C.ar    1  UNL1        0.0546
     44 CL         64.8129   92.4596   16.1733 Cl      1  UNL1       -0.0825
@<TRIPOS>BOND
     1    26    27    1
     2    27    28    1
     3    27    25    1
     4    15    25    1
     5    15    16    1
     6    16    17   am
     7    17    18    2
     8    17    20    1
     9    20    21    1
    10    21    22    1
    11    22    23    1
    12    22    24    1
    13    15     9    1
    14     9    10   ar
    15    10    11   ar
    16    11    12   ar
    17    12    13   ar
    18    13    14   ar
    19    14     1    1
    20     1     2    1
    21     2     3    1
    22     3     4    1
    23     4     5   am
    24     5     6    2
    25     5    29    1
    26    29    36    1
    27    36    37    1
    28    37    38   ar
    29    38    39   ar
    30    39    40   ar
    31    40    41    1
    32    40    42   ar
    33    42    43   ar
    34    43    44    1
    35    29    30    1
    36    30    31    1
    37    31    32    1
    38    32    33    1
    39    33    34    1
    40    34    35    2
    41     4     7    1
    42     7     8    1
    43    14     9   ar
    44     8     1    1
    45    43    37   ar
    46    34    30   am
    47    16    19    1
