@<TRIPOS>MOLECULE
*****
 20 22 0 0 0
SMALL
GASTEIGER

@<TRIPOS>ATOM
      1 C          65.7698   92.2279   12.3301 C.ar    1  UNL1        0.0001
      2 C          64.3789   91.7110   12.1106 C.ar    1  UNL1       -0.0003
      3 C          63.6550   91.0105   13.2220 C.ar    1  UNL1       -0.0039
      4 C          64.3220   90.8268   14.5530 C.ar    1  UNL1       -0.0178
      5 C          65.7130   91.3438   14.7724 C.ar    1  UNL1       -0.0039
      6 C          66.4368   92.0443   13.6610 C.ar    1  UNL1       -0.0003
      7 F          69.2071   92.1311    8.4345 F       1  UNL1       -0.2042
      8 C          68.2124   92.8800    9.2709 C.ar    1  UNL1        0.1401
      9 C          67.9416   94.3295    8.9959 C.ar    1  UNL1        0.0296
     10 C          66.9468   95.0785    9.8323 C.ar    1  UNL1        0.0023
     11 C          66.2229   94.3780   10.9437 C.ar    1  UNL1        0.0001
     12 C          66.4937   92.9285   11.2187 C.ar    1  UNL1        0.0022
     13 C          67.4885   92.1795   10.3823 C.ar    1  UNL1        0.0296
     14 C          63.5982   90.1263   15.6644 C.3     1  UNL1        0.0527
     15 C          63.6706   88.6327   15.7823 C.ar    1  UNL1       -0.0147
     16 C          63.0297   87.9405   16.9485 C.ar    1  UNL1        0.0167
     17 C          63.1022   86.4468   17.0663 C.ar    1  UNL1        0.0986
     18 N          63.8155   85.6455   16.0180 N.ar    1  UNL1       -0.2423
     19 C          64.4563   86.3377   14.8518 C.ar    1  UNL1        0.0986
     20 C          64.3839   87.8313   14.7339 C.ar    1  UNL1        0.0167
@<TRIPOS>BOND
     1     7     8    1
     2     8     9   ar
     3     9    10   ar
     4    10    11   ar
     5    11    12   ar
     6    12     1    1
     7     1     2   ar
     8     2     3   ar
     9     3     4   ar
    10     4    14    1
    11    14    15    1
    12    15    16   ar
    13    16    17   ar
    14    17    18   ar
    15    18    19   ar
    16    19    20   ar
    17     4     5   ar
    18     5     6   ar
    19    12    13   ar
    20    13     8   ar
    21     6     1   ar
    22    20    15   ar
@<TRIPOS>MOLECULE
*****
 20 22 0 0 0
SMALL
GASTEIGER

@<TRIPOS>ATOM
      1 C          65.7676   92.2164   12.3009 C.ar    1  UNL1        0.0001
      2 C          66.4460   92.0276   13.6253 C.ar    1  UNL1       -0.0003
      3 C          65.7268   91.3344   14.7444 C.ar    1  UNL1       -0.0039
      4 C          64.3292   90.8299   14.5390 C.ar    1  UNL1       -0.0178
      5 C          63.6508   91.0186   13.2145 C.ar    1  UNL1       -0.0039
      6 C          64.3700   91.7119   12.0955 C.ar    1  UNL1       -0.0003
      7 F          69.2665   92.1241    8.4605 F       1  UNL1       -0.2042
      8 C          68.2363   92.8635    9.2617 C.ar    1  UNL1        0.1401
      9 C          67.9252   94.2960    8.9439 C.ar    1  UNL1        0.0296
     10 C          66.8949   95.0353    9.7451 C.ar    1  UNL1        0.0023
     11 C          66.1757   94.3421   10.8641 C.ar    1  UNL1        0.0001
     12 C          66.4868   92.9096   11.1819 C.ar    1  UNL1        0.0022
     13 C          67.5171   92.1703   10.3807 C.ar    1  UNL1        0.0296
     14 C          63.6100   90.1366   15.6579 C.3     1  UNL1        0.0527
     15 C          63.6748   88.6430   15.7796 C.ar    1  UNL1       -0.0147
     16 C          64.3827   87.8353   14.7324 C.ar    1  UNL1        0.0167
     17 C          64.4475   86.3416   14.8541 C.ar    1  UNL1        0.0986
     18 N          63.8045   85.6557   16.0229 N.ar    1  UNL1       -0.2423
     19 C          63.0966   86.4634   17.0700 C.ar    1  UNL1        0.0986
     20 C          63.0318   87.9571   16.9484 C.ar    1  UNL1        0.0167
@<TRIPOS>BOND
     1     7     8    1
     2     8     9   ar
     3     9    10   ar
     4    10    11   ar
     5    11    12   ar
     6    12     1    1
     7     1     2   ar
     8     2     3   ar
     9     3     4   ar
    10     4    14    1
    11    14    15    1
    12    15    16   ar
    13    16    17   ar
    14    17    18   ar
    15    18    19   ar
    16    19    20   ar
    17     4     5   ar
    18     5     6   ar
    19    12    13   ar
    20    13     8   ar
    21     6     1   ar
    22    20    15   ar
@<TRIPOS>MOLECULE
*****
 20 22 0 0 0
SMALL
GASTEIGER

@<TRIPOS>ATOM
      1 C          64.5187   89.9580   14.3395 C.ar    1  UNL1        0.0001
      2 C          65.5998   90.8591   14.8583 C.ar    1  UNL1       -0.0003
      3 C          66.0148   92.0647   14.0679 C.ar    1  UNL1       -0.0039
      4 C          65.3486   92.3689   12.7588 C.ar    1  UNL1       -0.0178
      5 C          64.2675   91.4677   12.2401 C.ar    1  UNL1       -0.0039
      6 C          63.8526   90.2622   13.0305 C.ar    1  UNL1       -0.0003
      7 F          64.4272   84.8004   14.9654 F       1  UNL1       -0.2042
      8 C          64.0580   86.1737   15.4428 C.ar    1  UNL1        0.1401
      9 C          63.2739   86.3415   16.7104 C.ar    1  UNL1        0.0296
     10 C          62.9047   87.7147   17.1878 C.ar    1  UNL1        0.0023
     11 C          63.3197   88.9202   16.3975 C.ar    1  UNL1        0.0001
     12 C          64.1038   88.7524   15.1299 C.ar    1  UNL1        0.0022
     13 C          64.4730   87.3792   14.6525 C.ar    1  UNL1        0.0296
     14 C          65.7635   93.5744   11.9685 C.3     1  UNL1        0.0527
     15 C          66.6429   93.4151   10.7638 C.ar    1  UNL1       -0.0147
     16 C          67.4988   92.1920   10.6165 C.ar    1  UNL1        0.0167
     17 C          68.3782   92.0328    9.4117 C.ar    1  UNL1        0.0986
     18 N          68.4017   93.0964    8.3544 N.ar    1  UNL1       -0.2423
     19 C          67.5458   94.3194    8.5017 C.ar    1  UNL1        0.0986
     20 C          66.6664   94.4788    9.7064 C.ar    1  UNL1        0.0167
@<TRIPOS>BOND
     1     7     8    1
     2     8     9   ar
     3     9    10   ar
     4    10    11   ar
     5    11    12   ar
     6    12     1    1
     7     1     2   ar
     8     2     3   ar
     9     3     4   ar
    10     4    14    1
    11    14    15    1
    12    15    16   ar
    13    16    17   ar
    14    17    18   ar
    15    18    19   ar
    16    19    20   ar
    17     4     5   ar
    18     5     6   ar
    19    12    13   ar
    20    13     8   ar
    21     6     1   ar
    22    20    15   ar
@<TRIPOS>MOLECULE
*****
 20 22 0 0 0
SMALL
GASTEIGER

@<TRIPOS>ATOM
      1 C          62.0610   88.3570   10.3985 C.ar    1  UNL1        0.0001
      2 C          61.9423   89.8413   10.2172 C.ar    1  UNL1       -0.0003
      3 C          62.5062   90.7707   11.2508 C.ar    1  UNL1       -0.0039
      4 C          63.1888   90.2158   12.4657 C.ar    1  UNL1       -0.0178
      5 C          63.3076   88.7314   12.6470 C.ar    1  UNL1       -0.0039
      6 C          62.7437   87.8021   11.6134 C.ar    1  UNL1       -0.0003
      7 F          62.6873   84.4179    7.0681 F       1  UNL1       -0.2042
      8 C          61.8103   85.4581    7.6997 C.ar    1  UNL1        0.1401
      9 C          60.3694   85.5689    7.2978 C.ar    1  UNL1        0.0296
     10 C          59.4924   86.6090    7.9294 C.ar    1  UNL1        0.0023
     11 C          60.0563   87.5384    8.9629 C.ar    1  UNL1        0.0001
     12 C          61.4971   87.4276    9.3649 C.ar    1  UNL1        0.0022
     13 C          62.3741   86.3875    8.7333 C.ar    1  UNL1        0.0296
     14 C          63.7527   91.1451   13.4993 C.3     1  UNL1        0.0527
     15 C          65.1905   91.5661   13.4247 C.ar    1  UNL1       -0.0147
     16 C          66.1125   91.2935   14.5760 C.ar    1  UNL1        0.0167
     17 C          67.5503   91.7146   14.5013 C.ar    1  UNL1        0.0986
     18 N          68.0660   92.4083   13.2754 N.ar    1  UNL1       -0.2423
     19 C          67.1439   92.6809   12.1241 C.ar    1  UNL1        0.0986
     20 C          65.7062   92.2598   12.1987 C.ar    1  UNL1        0.0167
@<TRIPOS>BOND
     1     7     8    1
     2     8     9   ar
     3     9    10   ar
     4    10    11   ar
     5    11    12   ar
     6    12     1    1
     7     1     2   ar
     8     2     3   ar
     9     3     4   ar
    10     4    14    1
    11    14    15    1
    12    15    16   ar
    13    16    17   ar
    14    17    18   ar
    15    18    19   ar
    16    19    20   ar
    17     4     5   ar
    18     5     6   ar
    19    12    13   ar
    20    13     8   ar
    21     6     1   ar
    22    20    15   ar
@<TRIPOS>MOLECULE
*****
 20 22 0 0 0
SMALL
GASTEIGER

@<TRIPOS>ATOM
      1 C          62.0641   88.3642   10.4047 C.ar    1  UNL1        0.0001
      2 C          62.7400   87.8171   11.6268 C.ar    1  UNL1       -0.0003
      3 C          63.3017   88.7531   12.6557 C.ar    1  UNL1       -0.0039
      4 C          63.1874   90.2362   12.4623 C.ar    1  UNL1       -0.0178
      5 C          62.5114   90.7833   11.2401 C.ar    1  UNL1       -0.0039
      6 C          61.9498   89.8473   10.2113 C.ar    1  UNL1       -0.0003
      7 F          62.7049   84.4231    7.0794 F       1  UNL1       -0.2042
      8 C          61.8229   85.4577    7.7132 C.ar    1  UNL1        0.1401
      9 C          60.3792   85.5562    7.3182 C.ar    1  UNL1        0.0296
     10 C          59.4971   86.5908    7.9520 C.ar    1  UNL1        0.0023
     11 C          60.0587   87.5268    8.9808 C.ar    1  UNL1        0.0001
     12 C          61.5024   87.4282    9.3758 C.ar    1  UNL1        0.0022
     13 C          62.3845   86.3937    8.7420 C.ar    1  UNL1        0.0296
     14 C          63.7490   91.1722   13.4911 C.3     1  UNL1        0.0527
     15 C          65.1940   91.5705   13.4333 C.ar    1  UNL1       -0.0147
     16 C          65.7363   92.2499   12.2109 C.ar    1  UNL1        0.0167
     17 C          67.1814   92.6482   12.1531 C.ar    1  UNL1        0.0986
     18 N          68.0839   92.3673   13.3177 N.ar    1  UNL1       -0.2423
     19 C          67.5416   91.6879   14.5401 C.ar    1  UNL1        0.0986
     20 C          66.0966   91.2896   14.5979 C.ar    1  UNL1        0.0167
@<TRIPOS>BOND
     1     7     8    1
     2     8     9   ar
     3     9    10   ar
     4    10    11   ar
     5    11    12   ar
     6    12     1    1
     7     1     2   ar
     8     2     3   ar
     9     3     4   ar
    10     4    14    1
    11    14    15    1
    12    15    16   ar
    13    16    17   ar
    14    17    18   ar
    15    18    19   ar
    16    19    20   ar
    17     4     5   ar
    18     5     6   ar
    19    12    13   ar
    20    13     8   ar
    21     6     1   ar
    22    20    15   ar
@<TRIPOS>MOLECULE
*****
 20 22 0 0 0
SMALL
GASTEIGER

@<TRIPOS>ATOM
      1 C          63.0395   88.9076   12.2052 C.ar    1  UNL1        0.0001
      2 C          63.0749   90.3959   12.0224 C.ar    1  UNL1       -0.0003
      3 C          63.7709   91.2593   13.0325 C.ar    1  UNL1       -0.0039
      4 C          64.4314   90.6342   14.2254 C.ar    1  UNL1       -0.0178
      5 C          64.3959   89.1457   14.4082 C.ar    1  UNL1       -0.0039
      6 C          63.7000   88.2825   13.3980 C.ar    1  UNL1       -0.0003
      7 F          60.1426   88.4419    7.9166 F       1  UNL1       -0.2042
      8 C          60.8951   87.8114    9.0508 C.ar    1  UNL1        0.1401
      9 C          60.9516   86.3177    9.1748 C.ar    1  UNL1        0.0296
     10 C          61.7041   85.6872   10.3089 C.ar    1  UNL1        0.0023
     11 C          62.4000   86.5505   11.3190 C.ar    1  UNL1        0.0001
     12 C          62.3435   88.0442   11.1950 C.ar    1  UNL1        0.0022
     13 C          61.5910   88.6747   10.0609 C.ar    1  UNL1        0.0296
     14 C          65.1274   91.4975   15.2355 C.3     1  UNL1        0.0527
     15 C          66.5444   91.9306   15.0026 C.ar    1  UNL1       -0.0147
     16 C          67.2238   91.6076   13.7049 C.ar    1  UNL1        0.0167
     17 C          68.6409   92.0408   13.4720 C.ar    1  UNL1        0.0986
     18 N          69.3786   92.7970   14.5369 N.ar    1  UNL1       -0.2423
     19 C          68.6992   93.1201   15.8346 C.ar    1  UNL1        0.0986
     20 C          67.2822   92.6869   16.0675 C.ar    1  UNL1        0.0167
@<TRIPOS>BOND
     1     7     8    1
     2     8     9   ar
     3     9    10   ar
     4    10    11   ar
     5    11    12   ar
     6    12     1    1
     7     1     2   ar
     8     2     3   ar
     9     3     4   ar
    10     4    14    1
    11    14    15    1
    12    15    16   ar
    13    16    17   ar
    14    17    18   ar
    15    18    19   ar
    16    19    20   ar
    17     4     5   ar
    18     5     6   ar
    19    12    13   ar
    20    13     8   ar
    21     6     1   ar
    22    20    15   ar
@<TRIPOS>MOLECULE
*****
 20 22 0 0 0
SMALL
GASTEIGER

@<TRIPOS>ATOM
      1 C          63.5128   86.0492   13.2328 C.ar    1  UNL1        0.0001
      2 C          64.1706   86.3817   14.5392 C.ar    1  UNL1       -0.0003
      3 C          64.3951   87.8144   14.9227 C.ar    1  UNL1       -0.0039
      4 C          63.9617   88.9146   13.9997 C.ar    1  UNL1       -0.0178
      5 C          63.3039   88.5820   12.6933 C.ar    1  UNL1       -0.0039
      6 C          63.0794   87.1494   12.3098 C.ar    1  UNL1       -0.0003
      7 F          61.8719   81.2703   14.4451 F       1  UNL1       -0.2042
      8 C          62.4679   82.2271   13.4555 C.ar    1  UNL1        0.1401
      9 C          62.8393   81.7512   12.0823 C.ar    1  UNL1        0.0296
     10 C          63.4352   82.7080   11.0927 C.ar    1  UNL1        0.0023
     11 C          63.6597   84.1406   11.4761 C.ar    1  UNL1        0.0001
     12 C          63.2883   84.6165   12.8492 C.ar    1  UNL1        0.0022
     13 C          62.6923   83.6597   13.8389 C.ar    1  UNL1        0.0296
     14 C          64.1861   90.3472   14.3832 C.3     1  UNL1        0.0527
     15 C          65.2476   91.1510   13.6924 C.ar    1  UNL1       -0.0147
     16 C          64.9389   91.8478   12.4004 C.ar    1  UNL1        0.0167
     17 C          66.0004   92.6516   11.7096 C.ar    1  UNL1        0.0986
     18 N          67.3705   92.7586   12.3108 N.ar    1  UNL1       -0.2423
     19 C          67.6791   92.0618   13.6027 C.ar    1  UNL1        0.0986
     20 C          66.6177   91.2581   14.2935 C.ar    1  UNL1        0.0167
@<TRIPOS>BOND
     1     7     8    1
     2     8     9   ar
     3     9    10   ar
     4    10    11   ar
     5    11    12   ar
     6    12     1    1
     7     1     2   ar
     8     2     3   ar
     9     3     4   ar
    10     4    14    1
    11    14    15    1
    12    15    16   ar
    13    16    17   ar
    14    17    18   ar
    15    18    19   ar
    16    19    20   ar
    17     4     5   ar
    18     5     6   ar
    19    12    13   ar
    20    13     8   ar
    21     6     1   ar
    22    20    15   ar
@<TRIPOS>MOLECULE
*****
 20 22 0 0 0
SMALL
GASTEIGER

@<TRIPOS>ATOM
      1 C          63.5775   86.0210   13.2632 C.ar    1  UNL1        0.0001
      2 C          64.2337   86.4402   14.5452 C.ar    1  UNL1       -0.0003
      3 C          64.3922   87.8971   14.8652 C.ar    1  UNL1       -0.0039
      4 C          63.8945   88.9348   13.9031 C.ar    1  UNL1       -0.0178
      5 C          63.2383   88.5155   12.6211 C.ar    1  UNL1       -0.0039
      6 C          63.0798   87.0586   12.3011 C.ar    1  UNL1       -0.0003
      7 F          64.3434   82.0103   10.0496 F       1  UNL1       -0.2042
      8 C          63.8019   82.5587   11.3364 C.ar    1  UNL1        0.1401
      9 C          63.1019   81.6504   12.3033 C.ar    1  UNL1        0.0296
     10 C          62.5605   82.1988   13.5901 C.ar    1  UNL1        0.0023
     11 C          62.7190   83.6557   13.9101 C.ar    1  UNL1        0.0001
     12 C          63.4189   84.5640   12.9433 C.ar    1  UNL1        0.0022
     13 C          63.9604   84.0156   11.6564 C.ar    1  UNL1        0.0296
     14 C          64.0530   90.3916   14.2230 C.3     1  UNL1        0.0527
     15 C          65.1813   91.1737   13.6187 C.ar    1  UNL1       -0.0147
     16 C          64.9807   91.8989   12.3210 C.ar    1  UNL1        0.0167
     17 C          66.1091   92.6810   11.7167 C.ar    1  UNL1        0.0986
     18 N          67.4379   92.7379   12.4100 N.ar    1  UNL1       -0.2423
     19 C          67.6386   92.0128   13.7077 C.ar    1  UNL1        0.0986
     20 C          66.5103   91.2307   14.3120 C.ar    1  UNL1        0.0167
@<TRIPOS>BOND
     1     7     8    1
     2     8     9   ar
     3     9    10   ar
     4    10    11   ar
     5    11    12   ar
     6    12     1    1
     7     1     2   ar
     8     2     3   ar
     9     3     4   ar
    10     4    14    1
    11    14    15    1
    12    15    16   ar
    13    16    17   ar
    14    17    18   ar
    15    18    19   ar
    16    19    20   ar
    17     4     5   ar
    18     5     6   ar
    19    12    13   ar
    20    13     8   ar
    21     6     1   ar
    22    20    15   ar
@<TRIPOS>MOLECULE
*****
 20 22 0 0 0
SMALL
GASTEIGER

@<TRIPOS>ATOM
      1 C          64.9669   91.5313   13.0060 C.ar    1  UNL1        0.0001
      2 C          63.8395   90.6631   13.4805 C.ar    1  UNL1       -0.0003
      3 C          62.7307   90.2933   12.5404 C.ar    1  UNL1       -0.0039
      4 C          62.7493   90.7918   11.1258 C.ar    1  UNL1       -0.0178
      5 C          63.8768   91.6600   10.6513 C.ar    1  UNL1       -0.0039
      6 C          64.9855   92.0297   11.5914 C.ar    1  UNL1       -0.0003
      7 F          70.0270   92.2720   13.9266 F       1  UNL1       -0.2042
      8 C          68.6058   92.2714   14.4064 C.ar    1  UNL1        0.1401
      9 C          68.2934   92.6406   15.8263 C.ar    1  UNL1        0.0296
     10 C          66.8722   92.6400   16.3061 C.ar    1  UNL1        0.0023
     11 C          65.7634   92.2703   15.3660 C.ar    1  UNL1        0.0001
     12 C          66.0758   91.9011   13.9462 C.ar    1  UNL1        0.0022
     13 C          67.4970   91.9017   13.4663 C.ar    1  UNL1        0.0296
     14 C          61.6405   90.4220   10.1856 C.3     1  UNL1        0.0527
     15 C          61.4071   88.9836    9.8301 C.ar    1  UNL1       -0.0147
     16 C          62.3127   87.9197   10.3758 C.ar    1  UNL1        0.0167
     17 C          62.0792   86.4812   10.0203 C.ar    1  UNL1        0.0986
     18 N          60.9401   86.1067    9.1191 N.ar    1  UNL1       -0.2423
     19 C          60.0345   87.1707    8.5734 C.ar    1  UNL1        0.0986
     20 C          60.2679   88.6091    8.9289 C.ar    1  UNL1        0.0167
@<TRIPOS>BOND
     1     7     8    1
     2     8     9   ar
     3     9    10   ar
     4    10    11   ar
     5    11    12   ar
     6    12     1    1
     7     1     2   ar
     8     2     3   ar
     9     3     4   ar
    10     4    14    1
    11    14    15    1
    12    15    16   ar
    13    16    17   ar
    14    17    18   ar
    15    18    19   ar
    16    19    20   ar
    17     4     5   ar
    18     5     6   ar
    19    12    13   ar
    20    13     8   ar
    21     6     1   ar
    22    20    15   ar
