@<TRIPOS>MOLECULE
*****
 39 42 0 0 0
SMALL
GASTEIGER

@<TRIPOS>ATOM
      1 C          65.3835   90.5375   14.1421 C.ar    1  UNL1        0.0053
      2 C          65.1894   89.2518   14.8898 C.ar    1  UNL1        0.0033
      3 C          64.2954   88.1858   14.3291 C.ar    1  UNL1        0.0382
      4 C          63.5956   88.4055   13.0207 C.ar    1  UNL1        0.1529
      5 C          63.7897   89.6913   12.2730 C.ar    1  UNL1        0.0882
      6 C          64.6837   90.7573   12.8336 C.ar    1  UNL1        0.0181
      7 N          63.0899   89.9110   10.9646 N.am    1  UNL1       -0.2512
      8 C          62.1959   88.8450   10.4039 C.2     1  UNL1        0.2698
      9 O          61.4960   89.0647    9.0955 O.2     1  UNL1       -0.2704
     10 C          62.0017   87.5592   11.1517 C.3     1  UNL1        0.2197
     11 C          61.5045   86.1838   11.4853 C.3     1  UNL1        0.0579
     12 O          62.7015   87.3394   12.4601 O.3     1  UNL1       -0.4686
     13 C          67.5783   91.9232   14.0275 C.ar    1  UNL1        0.0645
     14 N          68.4723   92.9892   14.5881 N.ar    1  UNL1       -0.2183
     15 C          68.0656   93.7357   15.8240 C.ar    1  UNL1        0.2145
     16 N          68.9596   94.8017   16.3846 N.pl3   1  UNL1       -0.3274
     17 N          66.7649   93.4161   16.4992 N.ar    1  UNL1       -0.1995
     18 C          65.8708   92.3501   15.9386 C.ar    1  UNL1        0.1293
     19 N          64.5701   92.0305   16.6138 N.pl3   1  UNL1       -0.3425
     20 C          66.2776   91.6036   14.7027 C.ar    1  UNL1        0.0449
     21 H          69.8133   95.0115   15.9414 H       1  UNL1        0.1452
     22 H          68.6927   95.2917   17.1957 H       1  UNL1        0.1452
     23 H          64.3031   92.5204   17.4249 H       1  UNL1        0.1437
     24 H          63.9833   91.3308   16.2458 H       1  UNL1        0.1437
     25 C          68.4014   91.9301   11.5632 C.3     1  UNL1        0.0067
     26 C          67.9850   91.1767   12.7916 C.3     1  UNL1        0.0460
     27 C          61.1292   87.3013    9.9591 C.ar    1  UNL1        0.0219
     28 C          61.5964   86.3772    8.8739 C.ar    1  UNL1       -0.0005
     29 C          60.7238   86.1193    7.6813 C.ar    1  UNL1       -0.0002
     30 C          59.3842   86.7854    7.5739 C.ar    1  UNL1       -0.0000
     31 C          58.9171   87.7095    8.6592 C.ar    1  UNL1       -0.0002
     32 C          59.7895   87.9675    9.8518 C.ar    1  UNL1       -0.0005
     33 C          63.2840   91.1967   10.2168 C.3     1  UNL1        0.1196
     34 C          64.0807   92.3090   10.8317 C.3     1  UNL1        0.1113
     35 N          65.0457   93.0931    9.9926 N.am    1  UNL1       -0.3026
     36 C          65.9602   94.0922   10.6372 C.2     1  UNL1        0.2230
     37 C          66.9252   94.8763    9.7982 C.3     1  UNL1        0.0946
     38 O          65.9095   94.3074   12.1209 O.2     1  UNL1       -0.2751
     39 H          65.0790   92.9519    9.0189 H       1  UNL1        0.1495
@<TRIPOS>BOND
     1    25    26    1
     2    26    13    1
     3    13    14   ar
     4    14    15   ar
     5    15    16    1
     6    15    17   ar
     7    17    18   ar
     8    18    19    1
     9    18    20   ar
    10    20     1    1
    11     1     2   ar
    12     2     3   ar
    13     3     4   ar
    14     4     5   ar
    15     5     6   ar
    16     5     7    1
    17     7    33    1
    18    33    34    1
    19    34    35    1
    20    35    36   am
    21    36    37    1
    22    36    38    2
    23     7     8   am
    24     8     9    2
    25     8    10    1
    26    10    11    1
    27    10    27    1
    28    27    28   ar
    29    28    29   ar
    30    29    30   ar
    31    30    31   ar
    32    31    32   ar
    33    10    12    1
    34    20    13   ar
    35     6     1   ar
    36    32    27   ar
    37    12     4    1
    38    16    21    1
    39    16    22    1
    40    19    23    1
    41    19    24    1
    42    35    39    1
@<TRIPOS>MOLECULE
*****
 39 42 0 0 0
SMALL
GASTEIGER

@<TRIPOS>ATOM
      1 C          64.0774   89.2781   13.2424 C.ar    1  UNL1        0.0053
      2 C          64.2797   89.1651   14.7244 C.ar    1  UNL1        0.0033
      3 C          64.0599   87.8509   15.4132 C.ar    1  UNL1        0.0382
      4 C          63.6378   86.6497   14.6200 C.ar    1  UNL1        0.1529
      5 C          63.4355   86.7628   13.1381 C.ar    1  UNL1        0.0882
      6 C          63.6553   88.0770   12.4493 C.ar    1  UNL1        0.0181
      7 N          63.0135   85.5616   12.3449 N.am    1  UNL1       -0.2512
      8 C          62.7937   84.2474   13.0337 C.2     1  UNL1        0.2698
      9 O          62.3716   83.0463   12.2406 O.2     1  UNL1       -0.2704
     10 C          62.9960   84.1343   14.5158 C.3     1  UNL1        0.2197
     11 C          63.0593   83.5314   15.8878 C.3     1  UNL1        0.0579
     12 O          63.4181   85.3355   15.3089 O.3     1  UNL1       -0.4686
     13 C          65.1871   91.6264   13.1770 C.ar    1  UNL1        0.0645
     14 N          65.4069   92.9406   12.4882 N.ar    1  UNL1       -0.2183
     15 C          64.7368   93.2209   11.1758 C.ar    1  UNL1        0.2145
     16 N          64.9565   94.5351   10.4870 N.pl3   1  UNL1       -0.3274
     17 N          63.8468   92.1869   10.5523 N.ar    1  UNL1       -0.1995
     18 C          63.6270   90.8726   11.2412 C.ar    1  UNL1        0.1293
     19 N          62.7370   89.8386   10.6176 N.pl3   1  UNL1       -0.3425
     20 C          64.2972   90.5924   12.5535 C.ar    1  UNL1        0.0449
     21 H          65.5407   95.2137   10.8962 H       1  UNL1        0.1452
     22 H          64.5167   94.7190    9.6256 H       1  UNL1        0.1452
     23 H          62.2972   90.0225    9.7563 H       1  UNL1        0.1437
     24 H          62.5928   88.9760   11.0697 H       1  UNL1        0.1437
     25 C          67.3355   91.5544   14.6363 C.3     1  UNL1        0.0067
     26 C          65.8573   91.3461   14.4895 C.3     1  UNL1        0.0460
     27 C          62.5959   82.7238   14.1991 C.ar    1  UNL1        0.0219
     28 C          61.1809   82.2780   14.4201 C.ar    1  UNL1       -0.0005
     29 C          60.7808   80.8674   14.1034 C.ar    1  UNL1       -0.0002
     30 C          61.7957   79.9027   13.5658 C.ar    1  UNL1       -0.0000
     31 C          63.2108   80.3485   13.3448 C.ar    1  UNL1       -0.0002
     32 C          63.6109   81.7590   13.6614 C.ar    1  UNL1       -0.0005
     33 C          62.8112   85.6747   10.8630 C.3     1  UNL1        0.1196
     34 C          61.4230   85.7319   10.2977 C.3     1  UNL1        0.1113
     35 N          60.8763   87.0299    9.7814 N.am    1  UNL1       -0.3026
     36 C          60.2000   87.0796    8.4434 C.2     1  UNL1        0.2230
     37 C          59.6534   88.3774    7.9270 C.3     1  UNL1        0.0946
     38 O          60.0704   85.8313    7.6217 O.2     1  UNL1       -0.2751
     39 H          60.9614   87.8491   10.3206 H       1  UNL1        0.1495
@<TRIPOS>BOND
     1    25    26    1
     2    26    13    1
     3    13    14   ar
     4    14    15   ar
     5    15    16    1
     6    15    17   ar
     7    17    18   ar
     8    18    19    1
     9    18    20   ar
    10    20     1    1
    11     1     2   ar
    12     2     3   ar
    13     3     4   ar
    14     4     5   ar
    15     5     6   ar
    16     5     7    1
    17     7    33    1
    18    33    34    1
    19    34    35    1
    20    35    36   am
    21    36    37    1
    22    36    38    2
    23     7     8   am
    24     8     9    2
    25     8    10    1
    26    10    11    1
    27    10    27    1
    28    27    28   ar
    29    28    29   ar
    30    29    30   ar
    31    30    31   ar
    32    31    32   ar
    33    10    12    1
    34    20    13   ar
    35     6     1   ar
    36    32    27   ar
    37    12     4    1
    38    16    21    1
    39    16    22    1
    40    19    23    1
    41    19    24    1
    42    35    39    1
@<TRIPOS>MOLECULE
*****
 39 42 0 0 0
SMALL
GASTEIGER

@<TRIPOS>ATOM
      1 C          64.1959   89.3357   13.2467 C.ar    1  UNL1        0.0053
      2 C          64.4785   89.1874   14.7123 C.ar    1  UNL1        0.0033
      3 C          64.2750   87.8623   15.3850 C.ar    1  UNL1        0.0382
      4 C          63.7889   86.6855   14.5921 C.ar    1  UNL1        0.1529
      5 C          63.5062   86.8338   13.1265 C.ar    1  UNL1        0.0882
      6 C          63.7097   88.1589   12.4538 C.ar    1  UNL1        0.0181
      7 N          63.0201   85.6570   12.3335 N.am    1  UNL1       -0.2512
      8 C          62.8166   84.3318   13.0062 C.2     1  UNL1        0.2698
      9 O          62.3304   83.1550   12.2133 O.2     1  UNL1       -0.2704
     10 C          63.0992   84.1835   14.4719 C.3     1  UNL1        0.2197
     11 C          63.2286   83.5501   15.8254 C.3     1  UNL1        0.0579
     12 O          63.5854   85.3603   15.2648 O.3     1  UNL1       -0.4686
     13 C          65.2576   91.7069   13.2216 C.ar    1  UNL1        0.0645
     14 N          65.4611   93.0320   12.5489 N.ar    1  UNL1       -0.2183
     15 C          64.8064   93.3113   11.2285 C.ar    1  UNL1        0.2145
     16 N          65.0100   94.6364   10.5558 N.pl3   1  UNL1       -0.3274
     17 N          63.9482   92.2653   10.5808 N.ar    1  UNL1       -0.1995
     18 C          63.7447   90.9401   11.2536 C.ar    1  UNL1        0.1293
     19 N          62.8865   89.8942   10.6059 N.pl3   1  UNL1       -0.3425
     20 C          64.3994   90.6609   12.5739 C.ar    1  UNL1        0.0449
     21 H          65.5732   95.3229   10.9809 H       1  UNL1        0.1452
     22 H          64.5803   94.8196    9.6892 H       1  UNL1        0.1452
     23 H          62.4568   90.0774    9.7393 H       1  UNL1        0.1437
     24 H          62.7529   89.0244   11.0474 H       1  UNL1        0.1437
     25 C          67.3943   91.6014   14.6960 C.3     1  UNL1        0.0067
     26 C          65.9123   91.4276   14.5420 C.3     1  UNL1        0.0460
     27 C          62.6580   82.7867   14.1491 C.ar    1  UNL1        0.0219
     28 C          61.2532   82.3555   14.4499 C.ar    1  UNL1       -0.0005
     29 C          60.8120   80.9586   14.1270 C.ar    1  UNL1       -0.0002
     30 C          61.7755   79.9930   13.5033 C.ar    1  UNL1       -0.0000
     31 C          63.1804   80.4243   13.2025 C.ar    1  UNL1       -0.0002
     32 C          63.6217   81.8210   13.5253 C.ar    1  UNL1       -0.0005
     33 C          62.7374   85.8053   10.8679 C.3     1  UNL1        0.1196
     34 C          61.4168   86.3496   10.4101 C.3     1  UNL1        0.1113
     35 N          60.5093   87.0365   11.3872 N.am    1  UNL1       -0.3026
     36 C          59.9452   88.3883   11.0643 C.2     1  UNL1        0.2230
     37 C          59.0377   89.0752   12.0413 C.3     1  UNL1        0.0946
     38 O          60.2885   89.0532    9.7642 O.2     1  UNL1       -0.2751
     39 H          60.2840   86.6000   12.2404 H       1  UNL1        0.1495
@<TRIPOS>BOND
     1    25    26    1
     2    26    13    1
     3    13    14   ar
     4    14    15   ar
     5    15    16    1
     6    15    17   ar
     7    17    18   ar
     8    18    19    1
     9    18    20   ar
    10    20     1    1
    11     1     2   ar
    12     2     3   ar
    13     3     4   ar
    14     4     5   ar
    15     5     6   ar
    16     5     7    1
    17     7    33    1
    18    33    34    1
    19    34    35    1
    20    35    36   am
    21    36    37    1
    22    36    38    2
    23     7     8   am
    24     8     9    2
    25     8    10    1
    26    10    11    1
    27    10    27    1
    28    27    28   ar
    29    28    29   ar
    30    29    30   ar
    31    30    31   ar
    32    31    32   ar
    33    10    12    1
    34    20    13   ar
    35     6     1   ar
    36    32    27   ar
    37    12     4    1
    38    16    21    1
    39    16    22    1
    40    19    23    1
    41    19    24    1
    42    35    39    1
@<TRIPOS>MOLECULE
*****
 39 42 0 0 0
SMALL
GASTEIGER

@<TRIPOS>ATOM
      1 C          64.0917   89.3071   13.2495 C.ar    1  UNL1        0.0053
      2 C          64.2464   89.2112   14.7383 C.ar    1  UNL1        0.0033
      3 C          64.0063   87.9044   15.4346 C.ar    1  UNL1        0.0382
      4 C          63.6116   86.6937   14.6419 C.ar    1  UNL1        0.1529
      5 C          63.4570   86.7897   13.1530 C.ar    1  UNL1        0.0882
      6 C          63.6971   88.0964   12.4568 C.ar    1  UNL1        0.0181
      7 N          63.0623   85.5789   12.3604 N.am    1  UNL1       -0.2512
      8 C          62.8223   84.2722   13.0566 C.2     1  UNL1        0.2698
      9 O          62.4276   83.0614   12.2639 O.2     1  UNL1       -0.2704
     10 C          62.9769   84.1762   14.5456 C.3     1  UNL1        0.2197
     11 C          62.9968   83.5889   15.9257 C.3     1  UNL1        0.0579
     12 O          63.3716   85.3869   15.3382 O.3     1  UNL1       -0.4686
     13 C          63.5717   90.9489   11.3041 C.ar    1  UNL1        0.0645
     14 N          63.8118   92.2556   10.6078 N.ar    1  UNL1       -0.2183
     15 C          64.8119   93.2274   11.1605 C.ar    1  UNL1        0.2145
     16 N          65.0519   94.5341   10.4642 N.pl3   1  UNL1       -0.3274
     17 N          65.5720   92.8924   12.4096 N.ar    1  UNL1       -0.1995
     18 C          65.3319   91.5856   13.1059 C.ar    1  UNL1        0.1293
     19 N          66.0920   91.2507   14.3549 N.pl3   1  UNL1       -0.3425
     20 C          64.3318   90.6139   12.5531 C.ar    1  UNL1        0.0449
     21 H          64.5530   94.7540    9.6444 H       1  UNL1        0.1452
     22 H          65.7083   95.1719   10.8270 H       1  UNL1        0.1452
     23 H          66.7484   91.8885   14.7177 H       1  UNL1        0.1437
     24 H          65.9344   90.3930   14.8119 H       1  UNL1        0.1437
     25 C          61.1097   90.3123   10.7720 C.3     1  UNL1        0.0067
     26 C          62.5716   89.9771   10.7514 C.3     1  UNL1        0.0460
     27 C          62.5891   82.7615   14.2322 C.ar    1  UNL1        0.0219
     28 C          63.6190   81.7966   13.7240 C.ar    1  UNL1       -0.0005
     29 C          63.2312   80.3818   13.4106 C.ar    1  UNL1       -0.0002
     30 C          61.8137   79.9320   13.6054 C.ar    1  UNL1       -0.0000
     31 C          60.7838   80.8969   14.1136 C.ar    1  UNL1       -0.0002
     32 C          61.1715   82.3116   14.4270 C.ar    1  UNL1       -0.0005
     33 C          62.9077   85.6749   10.8715 C.3     1  UNL1        0.1196
     34 C          61.5389   85.6738   10.2580 C.3     1  UNL1        0.1113
     35 N          60.9311   86.9585    9.7780 N.am    1  UNL1       -0.3026
     36 C          60.2198   87.0047    8.4583 C.2     1  UNL1        0.2230
     37 C          59.6120   88.2893    7.9783 C.3     1  UNL1        0.0946
     38 O          60.1162   85.7661    7.6184 O.2     1  UNL1       -0.2751
     39 H          60.9991   87.7714   10.3293 H       1  UNL1        0.1495
@<TRIPOS>BOND
     1    25    26    1
     2    26    13    1
     3    13    14   ar
     4    14    15   ar
     5    15    16    1
     6    15    17   ar
     7    17    18   ar
     8    18    19    1
     9    18    20   ar
    10    20     1    1
    11     1     2   ar
    12     2     3   ar
    13     3     4   ar
    14     4     5   ar
    15     5     6   ar
    16     5     7    1
    17     7    33    1
    18    33    34    1
    19    34    35    1
    20    35    36   am
    21    36    37    1
    22    36    38    2
    23     7     8   am
    24     8     9    2
    25     8    10    1
    26    10    11    1
    27    10    27    1
    28    27    28   ar
    29    28    29   ar
    30    29    30   ar
    31    30    31   ar
    32    31    32   ar
    33    10    12    1
    34    20    13   ar
    35     6     1   ar
    36    32    27   ar
    37    12     4    1
    38    16    21    1
    39    16    22    1
    40    19    23    1
    41    19    24    1
    42    35    39    1
@<TRIPOS>MOLECULE
*****
 39 42 0 0 0
SMALL
GASTEIGER

@<TRIPOS>ATOM
      1 C          65.3129   90.5029   14.1106 C.ar    1  UNL1        0.0053
      2 C          65.1912   89.1774   14.8020 C.ar    1  UNL1        0.0033
      3 C          64.3246   88.1025   14.2158 C.ar    1  UNL1        0.0382
      4 C          63.5798   88.3532   12.9381 C.ar    1  UNL1        0.1529
      5 C          63.7015   89.6787   12.2467 C.ar    1  UNL1        0.0882
      6 C          64.5680   90.7536   12.8329 C.ar    1  UNL1        0.0181
      7 N          62.9566   89.9294   10.9691 N.am    1  UNL1       -0.2512
      8 C          62.0901   88.8545   10.3828 C.2     1  UNL1        0.2698
      9 O          61.3452   89.1051    9.1052 O.2     1  UNL1       -0.2704
     10 C          61.9683   87.5289   11.0743 C.3     1  UNL1        0.2197
     11 C          61.5358   86.1205   11.3560 C.3     1  UNL1        0.0579
     12 O          62.7132   87.2782   12.3519 O.3     1  UNL1       -0.4686
     13 C          65.6740   92.4095   15.8382 C.ar    1  UNL1        0.0645
     14 N          66.5405   93.4844   16.4244 N.ar    1  UNL1       -0.2183
     15 C          67.9126   93.7277   15.8692 C.ar    1  UNL1        0.2145
     16 N          68.7791   94.8027   16.4554 N.pl3   1  UNL1       -0.3274
     17 N          68.4181   92.8961   14.7278 N.ar    1  UNL1       -0.1995
     18 C          67.5515   91.8211   14.1416 C.ar    1  UNL1        0.1293
     19 N          68.0570   90.9895   13.0002 N.pl3   1  UNL1       -0.3425
     20 C          66.1795   91.5779   14.6968 C.ar    1  UNL1        0.0449
     21 H          68.4473   95.3485   17.2045 H       1  UNL1        0.1452
     22 H          69.6796   94.9623   16.0910 H       1  UNL1        0.1452
     23 H          68.9576   91.1492   12.6358 H       1  UNL1        0.1437
     24 H          67.4883   90.2840   12.6154 H       1  UNL1        0.1437
     25 C          63.8887   90.7802   16.7912 C.3     1  UNL1        0.0067
     26 C          64.3018   92.1662   16.3934 C.3     1  UNL1        0.0460
     27 C          61.0733   87.2904    9.8945 C.ar    1  UNL1        0.0219
     28 C          61.5217   86.3883    8.7831 C.ar    1  UNL1       -0.0005
     29 C          60.6265   86.1499    7.6033 C.ar    1  UNL1       -0.0002
     30 C          59.2832   86.8135    7.5348 C.ar    1  UNL1       -0.0000
     31 C          58.8348   87.7156    8.6462 C.ar    1  UNL1       -0.0002
     32 C          59.7298   87.9541    9.8260 C.ar    1  UNL1       -0.0005
     33 C          63.0784   91.2549   10.2776 C.3     1  UNL1        0.1196
     34 C          64.4246   91.8970   10.1185 C.3     1  UNL1        0.1113
     35 N          64.6300   93.3223   10.5385 N.am    1  UNL1       -0.3026
     36 C          66.0019   93.8061   10.9044 C.2     1  UNL1        0.2230
     37 C          66.2074   95.2313   11.3243 C.3     1  UNL1        0.0946
     38 O          67.1684   92.8645   10.8503 O.2     1  UNL1       -0.2751
     39 H          63.8644   93.9403   10.5740 H       1  UNL1        0.1495
@<TRIPOS>BOND
     1    25    26    1
     2    26    13    1
     3    13    14   ar
     4    14    15   ar
     5    15    16    1
     6    15    17   ar
     7    17    18   ar
     8    18    19    1
     9    18    20   ar
    10    20     1    1
    11     1     2   ar
    12     2     3   ar
    13     3     4   ar
    14     4     5   ar
    15     5     6   ar
    16     5     7    1
    17     7    33    1
    18    33    34    1
    19    34    35    1
    20    35    36   am
    21    36    37    1
    22    36    38    2
    23     7     8   am
    24     8     9    2
    25     8    10    1
    26    10    11    1
    27    10    27    1
    28    27    28   ar
    29    28    29   ar
    30    29    30   ar
    31    30    31   ar
    32    31    32   ar
    33    10    12    1
    34    20    13   ar
    35     6     1   ar
    36    32    27   ar
    37    12     4    1
    38    16    21    1
    39    16    22    1
    40    19    23    1
    41    19    24    1
    42    35    39    1
@<TRIPOS>MOLECULE
*****
 39 42 0 0 0
SMALL
GASTEIGER

@<TRIPOS>ATOM
      1 C          63.6459   89.2710   13.6959 C.ar    1  UNL1        0.0053
      2 C          62.9442   89.5805   12.4068 C.ar    1  UNL1        0.0033
      3 C          62.5729   88.4698   11.4696 C.ar    1  UNL1        0.0382
      4 C          62.9033   87.0496   11.8214 C.ar    1  UNL1        0.1529
      5 C          63.6051   86.7400   13.1105 C.ar    1  UNL1        0.0882
      6 C          63.9763   87.8507   14.0477 C.ar    1  UNL1        0.0181
      7 N          63.9355   85.3198   13.4623 N.am    1  UNL1       -0.2512
      8 C          63.5642   84.2091   12.5250 C.2     1  UNL1        0.2698
      9 O          63.8947   82.7889   12.8768 O.2     1  UNL1       -0.2704
     10 C          62.8625   84.5186   11.2359 C.3     1  UNL1        0.2197
     11 C          62.1950   84.3098    9.9089 C.3     1  UNL1        0.0579
     12 O          62.5320   85.9389   10.8841 O.3     1  UNL1       -0.4686
     13 C          65.0598   91.3833   14.2335 C.ar    1  UNL1        0.0645
     14 N          65.4311   92.4940   15.1708 N.ar    1  UNL1       -0.2183
     15 C          64.7598   92.6031   16.5078 C.ar    1  UNL1        0.2145
     16 N          65.1312   93.7137   17.4450 N.pl3   1  UNL1       -0.3274
     17 N          63.7172   91.6015   16.9075 N.ar    1  UNL1       -0.1995
     18 C          63.3459   90.4907   15.9701 C.ar    1  UNL1        0.1293
     19 N          62.3033   89.4891   16.3698 N.pl3   1  UNL1       -0.3425
     20 C          64.0172   90.3817   14.6332 C.ar    1  UNL1        0.0449
     21 H          65.8155   94.3711   17.1827 H       1  UNL1        0.1452
     22 H          64.6906   93.7853   18.3225 H       1  UNL1        0.1452
     23 H          61.8627   89.5607   17.2473 H       1  UNL1        0.1437
     24 H          62.0596   88.7602   15.7547 H       1  UNL1        0.1437
     25 C          65.6243   92.3988   11.9097 C.3     1  UNL1        0.0067
     26 C          65.7311   91.2742   12.8965 C.3     1  UNL1        0.0460
     27 C          62.9611   83.0259   11.1269 C.ar    1  UNL1        0.0219
     28 C          63.7977   82.4064   10.0469 C.ar    1  UNL1       -0.0005
     29 C          63.8963   80.9136    9.9379 C.ar    1  UNL1       -0.0002
     30 C          63.1584   80.0403   10.9088 C.ar    1  UNL1       -0.0000
     31 C          62.3218   80.6598   11.9887 C.ar    1  UNL1       -0.0002
     32 C          62.2231   82.1526   12.0978 C.ar    1  UNL1       -0.0005
     33 C          64.6372   85.0103   14.7513 C.3     1  UNL1        0.1196
     34 C          63.8421   84.6374   15.9674 C.3     1  UNL1        0.1113
     35 N          63.8641   85.5224   17.1783 N.am    1  UNL1       -0.3026
     36 C          62.6077   86.2054   17.6311 C.2     1  UNL1        0.2230
     37 C          62.6297   87.0904   18.8420 C.3     1  UNL1        0.0946
     38 O          61.3292   86.0033   16.8729 O.2     1  UNL1       -0.2751
     39 H          64.7032   85.6551   17.6759 H       1  UNL1        0.1495
@<TRIPOS>BOND
     1    25    26    1
     2    26    13    1
     3    13    14   ar
     4    14    15   ar
     5    15    16    1
     6    15    17   ar
     7    17    18   ar
     8    18    19    1
     9    18    20   ar
    10    20     1    1
    11     1     2   ar
    12     2     3   ar
    13     3     4   ar
    14     4     5   ar
    15     5     6   ar
    16     5     7    1
    17     7    33    1
    18    33    34    1
    19    34    35    1
    20    35    36   am
    21    36    37    1
    22    36    38    2
    23     7     8   am
    24     8     9    2
    25     8    10    1
    26    10    11    1
    27    10    27    1
    28    27    28   ar
    29    28    29   ar
    30    29    30   ar
    31    30    31   ar
    32    31    32   ar
    33    10    12    1
    34    20    13   ar
    35     6     1   ar
    36    32    27   ar
    37    12     4    1
    38    16    21    1
    39    16    22    1
    40    19    23    1
    41    19    24    1
    42    35    39    1
@<TRIPOS>MOLECULE
*****
 39 42 0 0 0
SMALL
GASTEIGER

@<TRIPOS>ATOM
      1 C          62.0181   89.3500   11.6894 C.ar    1  UNL1        0.0053
      2 C          61.4848   89.1745   13.0803 C.ar    1  UNL1        0.0033
      3 C          62.2305   89.7502   14.2476 C.ar    1  UNL1        0.0382
      4 C          63.5094   90.5014   14.0239 C.ar    1  UNL1        0.1529
      5 C          64.0427   90.6770   12.6330 C.ar    1  UNL1        0.0882
      6 C          63.2970   90.1013   11.4657 C.ar    1  UNL1        0.0181
      7 N          65.3216   91.4282   12.4093 N.am    1  UNL1       -0.2512
      8 C          66.0672   92.0039   13.5766 C.2     1  UNL1        0.2698
      9 O          67.3461   92.7551   13.3529 O.2     1  UNL1       -0.2704
     10 C          65.5339   91.8284   14.9676 C.3     1  UNL1        0.2197
     11 C          65.4326   91.9254   16.4610 C.3     1  UNL1        0.0579
     12 O          64.2550   91.0772   15.1913 O.3     1  UNL1       -0.4686
     13 C          61.5459   87.3681   10.0772 C.ar    1  UNL1        0.0645
     14 N          60.8003   86.7924    8.9099 N.ar    1  UNL1       -0.2183
     15 C          59.7813   87.6229    8.1874 C.ar    1  UNL1        0.2145
     16 N          59.0357   87.0472    7.0201 N.pl3   1  UNL1       -0.3274
     17 N          59.5079   89.0291    8.6322 N.ar    1  UNL1       -0.1995
     18 C          60.2535   89.6048    9.7996 C.ar    1  UNL1        0.1293
     19 N          59.9801   91.0110   10.2444 N.pl3   1  UNL1       -0.3425
     20 C          61.2725   88.7743   10.5220 C.ar    1  UNL1        0.0449
     21 H          59.2152   86.1242    6.7281 H       1  UNL1        0.1452
     22 H          58.3669   87.5922    6.5459 H       1  UNL1        0.1452
     23 H          59.3113   91.5560    9.7703 H       1  UNL1        0.1437
     24 H          60.4694   91.3888   11.0106 H       1  UNL1        0.1437
     25 C          62.1214   85.4377   11.7180 C.3     1  UNL1        0.0067
     26 C          62.5650   86.5377   10.7997 C.3     1  UNL1        0.0460
     27 C          66.7776   92.6133   15.2626 C.ar    1  UNL1        0.0219
     28 C          66.8327   94.0784   14.9455 C.ar    1  UNL1       -0.0005
     29 C          68.0765   94.8633   15.2405 C.ar    1  UNL1       -0.0002
     30 C          69.2651   94.1833   15.8525 C.ar    1  UNL1       -0.0000
     31 C          69.2100   92.7182   16.1696 C.ar    1  UNL1       -0.0002
     32 C          67.9663   91.9332   15.8747 C.ar    1  UNL1       -0.0005
     33 C          65.8549   91.6037   11.0184 C.3     1  UNL1        0.1196
     34 C          65.6124   92.8858   10.2784 C.3     1  UNL1        0.1113
     35 N          65.3862   94.1591   11.0383 N.am    1  UNL1       -0.3026
     36 C          66.3825   95.2764   10.9431 C.2     1  UNL1        0.2230
     37 C          66.1564   96.5497   11.7030 C.3     1  UNL1        0.0946
     38 O          67.6050   95.1203   10.0880 O.2     1  UNL1       -0.2751
     39 H          64.5839   94.2616   11.5996 H       1  UNL1        0.1495
@<TRIPOS>BOND
     1    25    26    1
     2    26    13    1
     3    13    14   ar
     4    14    15   ar
     5    15    16    1
     6    15    17   ar
     7    17    18   ar
     8    18    19    1
     9    18    20   ar
    10    20     1    1
    11     1     2   ar
    12     2     3   ar
    13     3     4   ar
    14     4     5   ar
    15     5     6   ar
    16     5     7    1
    17     7    33    1
    18    33    34    1
    19    34    35    1
    20    35    36   am
    21    36    37    1
    22    36    38    2
    23     7     8   am
    24     8     9    2
    25     8    10    1
    26    10    11    1
    27    10    27    1
    28    27    28   ar
    29    28    29   ar
    30    29    30   ar
    31    30    31   ar
    32    31    32   ar
    33    10    12    1
    34    20    13   ar
    35     6     1   ar
    36    32    27   ar
    37    12     4    1
    38    16    21    1
    39    16    22    1
    40    19    23    1
    41    19    24    1
    42    35    39    1
@<TRIPOS>MOLECULE
*****
 39 42 0 0 0
SMALL
GASTEIGER

@<TRIPOS>ATOM
      1 C          62.7726   84.0601   11.6251 C.ar    1  UNL1        0.0053
      2 C          62.0004   84.9118   10.6617 C.ar    1  UNL1        0.0033
      3 C          61.9961   86.4038   10.8164 C.ar    1  UNL1        0.0382
      4 C          62.7640   87.0441   11.9346 C.ar    1  UNL1        0.1529
      5 C          63.5363   86.1924   12.8980 C.ar    1  UNL1        0.0882
      6 C          63.5406   84.7004   12.7433 C.ar    1  UNL1        0.0181
      7 N          64.3042   86.8327   14.0161 N.am    1  UNL1       -0.2512
      8 C          64.2999   88.3247   14.1709 C.2     1  UNL1        0.2698
      9 O          65.0679   88.9650   15.2890 O.2     1  UNL1       -0.2704
     10 C          63.5277   89.1764   13.2074 C.3     1  UNL1        0.2197
     11 C          62.9528   90.3978   12.5534 C.3     1  UNL1        0.0579
     12 O          62.7597   88.5361   12.0892 O.3     1  UNL1       -0.4686
     13 C          62.2049   81.7003   12.5520 C.ar    1  UNL1        0.0645
     14 N          62.2092   80.2083   12.3974 N.ar    1  UNL1       -0.2183
     15 C          62.7855   79.5841   11.1611 C.ar    1  UNL1        0.2145
     16 N          62.7898   78.0921   11.0065 N.pl3   1  UNL1       -0.3274
     17 N          63.3575   80.4519   10.0796 N.ar    1  UNL1       -0.1995
     18 C          63.3532   81.9439   10.2342 C.ar    1  UNL1        0.1293
     19 N          63.9252   82.8117    9.1527 N.pl3   1  UNL1       -0.3425
     20 C          62.7769   82.5681   11.4704 C.ar    1  UNL1        0.0449
     21 H          62.4144   77.5226   11.7164 H       1  UNL1        0.1452
     22 H          63.1681   77.6824   10.1951 H       1  UNL1        0.1452
     23 H          64.3035   82.4020    8.3413 H       1  UNL1        0.1437
     24 H          63.9224   83.7909    9.2542 H       1  UNL1        0.1437
     25 C          62.4836   82.5004   15.0081 C.3     1  UNL1        0.0067
     26 C          61.6286   82.3246   13.7882 C.3     1  UNL1        0.0460
     27 C          64.0960   90.2408   14.0984 C.ar    1  UNL1        0.0219
     28 C          65.2870   91.0358   13.6517 C.ar    1  UNL1       -0.0005
     29 C          65.8553   92.1003   14.5428 C.ar    1  UNL1       -0.0002
     30 C          65.2326   92.3698   15.8804 C.ar    1  UNL1       -0.0000
     31 C          64.0416   91.5749   16.3271 C.ar    1  UNL1       -0.0002
     32 C          63.4732   90.5104   15.4362 C.ar    1  UNL1       -0.0005
     33 C          65.0765   85.9810   14.9796 C.3     1  UNL1        0.1196
     34 C          64.3617   85.2641   16.0864 C.3     1  UNL1        0.1113
     35 N          64.1142   85.9585   17.3928 N.am    1  UNL1       -0.3026
     36 C          62.7175   86.3366   17.7883 C.2     1  UNL1        0.2230
     37 C          62.4699   87.0310   19.0946 C.3     1  UNL1        0.0946
     38 O          61.5684   86.0202   16.8775 O.2     1  UNL1       -0.2751
     39 H          64.8683   86.1662   17.9906 H       1  UNL1        0.1495
@<TRIPOS>BOND
     1    25    26    1
     2    26    13    1
     3    13    14   ar
     4    14    15   ar
     5    15    16    1
     6    15    17   ar
     7    17    18   ar
     8    18    19    1
     9    18    20   ar
    10    20     1    1
    11     1     2   ar
    12     2     3   ar
    13     3     4   ar
    14     4     5   ar
    15     5     6   ar
    16     5     7    1
    17     7    33    1
    18    33    34    1
    19    34    35    1
    20    35    36   am
    21    36    37    1
    22    36    38    2
    23     7     8   am
    24     8     9    2
    25     8    10    1
    26    10    11    1
    27    10    27    1
    28    27    28   ar
    29    28    29   ar
    30    29    30   ar
    31    30    31   ar
    32    31    32   ar
    33    10    12    1
    34    20    13   ar
    35     6     1   ar
    36    32    27   ar
    37    12     4    1
    38    16    21    1
    39    16    22    1
    40    19    23    1
    41    19    24    1
    42    35    39    1
@<TRIPOS>MOLECULE
*****
 39 42 0 0 0
SMALL
GASTEIGER

@<TRIPOS>ATOM
      1 C          62.3798   86.1553   10.2101 C.ar    1  UNL1        0.0053
      2 C          62.5781   85.1728   11.3260 C.ar    1  UNL1        0.0033
      3 C          63.0229   85.6514   12.6763 C.ar    1  UNL1        0.0382
      4 C          63.2693   87.1123   12.9105 C.ar    1  UNL1        0.1529
      5 C          63.0710   88.0947   11.7946 C.ar    1  UNL1        0.0882
      6 C          62.6263   87.6162   10.4443 C.ar    1  UNL1        0.0181
      7 N          63.3174   89.5557   12.0288 N.am    1  UNL1       -0.2512
      8 C          63.7621   90.0342   13.3791 C.2     1  UNL1        0.2698
      9 O          64.0086   91.4952   13.6133 O.2     1  UNL1       -0.2704
     10 C          63.9605   89.0518   14.4951 C.3     1  UNL1        0.2197
     11 C          64.2833   88.5115   15.8567 C.3     1  UNL1        0.0579
     12 O          63.7140   87.5908   14.2609 O.3     1  UNL1       -0.4686
     13 C          60.6516   86.1820    8.2703 C.ar    1  UNL1        0.0645
     14 N          60.2069   85.7036    6.9200 N.ar    1  UNL1       -0.2183
     15 C          61.0456   84.7198    6.1591 C.ar    1  UNL1        0.2145
     16 N          60.6008   84.2414    4.8089 N.pl3   1  UNL1       -0.3274
     17 N          62.3290   84.2145    6.7486 N.ar    1  UNL1       -0.1995
     18 C          62.7738   84.6930    8.0989 C.ar    1  UNL1        0.1293
     19 N          64.0572   84.1878    8.6884 N.pl3   1  UNL1       -0.3425
     20 C          61.9351   85.6768    8.8597 C.ar    1  UNL1        0.0449
     21 H          59.7584   84.5730    4.4220 H       1  UNL1        0.1452
     22 H          61.1513   83.5957    4.3095 H       1  UNL1        0.1452
     23 H          64.6077   83.5421    8.1890 H       1  UNL1        0.1437
     24 H          64.3491   84.5018    9.5746 H       1  UNL1        0.1437
     25 C          59.7237   88.5902    8.5696 C.3     1  UNL1        0.0067
     26 C          59.8129   87.1658    9.0311 C.3     1  UNL1        0.0460
     27 C          64.3190   90.3251   15.2022 C.ar    1  UNL1        0.0219
     28 C          63.4021   90.8856   16.2487 C.ar    1  UNL1       -0.0005
     29 C          63.7607   92.1590   16.9558 C.ar    1  UNL1       -0.0002
     30 C          65.0360   92.8718   16.6165 C.ar    1  UNL1       -0.0000
     31 C          65.9529   92.3112   15.5701 C.ar    1  UNL1       -0.0002
     32 C          65.5945   91.0379   14.8629 C.ar    1  UNL1       -0.0005
     33 C          63.1191   90.5381   10.9128 C.3     1  UNL1        0.1196
     34 C          64.2800   91.3410   10.4053 C.3     1  UNL1        0.1113
     35 N          64.5731   92.6898   10.9927 N.am    1  UNL1       -0.3026
     36 C          65.9798   93.2102   11.0112 C.2     1  UNL1        0.2230
     37 C          66.2729   94.5589   11.5986 C.3     1  UNL1        0.0946
     38 O          67.0935   92.3819   10.4423 O.2     1  UNL1       -0.2751
     39 H          63.8421   93.2335   11.3661 H       1  UNL1        0.1495
@<TRIPOS>BOND
     1    25    26    1
     2    26    13    1
     3    13    14   ar
     4    14    15   ar
     5    15    16    1
     6    15    17   ar
     7    17    18   ar
     8    18    19    1
     9    18    20   ar
    10    20     1    1
    11     1     2   ar
    12     2     3   ar
    13     3     4   ar
    14     4     5   ar
    15     5     6   ar
    16     5     7    1
    17     7    33    1
    18    33    34    1
    19    34    35    1
    20    35    36   am
    21    36    37    1
    22    36    38    2
    23     7     8   am
    24     8     9    2
    25     8    10    1
    26    10    11    1
    27    10    27    1
    28    27    28   ar
    29    28    29   ar
    30    29    30   ar
    31    30    31   ar
    32    31    32   ar
    33    10    12    1
    34    20    13   ar
    35     6     1   ar
    36    32    27   ar
    37    12     4    1
    38    16    21    1
    39    16    22    1
    40    19    23    1
    41    19    24    1
    42    35    39    1
