@<TRIPOS>MOLECULE
*****
 47 50 0 0 0
SMALL
GASTEIGER

@<TRIPOS>ATOM
      1 N          61.6570   86.2536    9.4035 N.pl3   1  UNL1       -0.3043
      2 C          62.8285   85.5695    8.7635 C.3     1  UNL1        0.1123
      3 C          63.6509   84.5947    9.5530 C.3     1  UNL1        0.1149
      4 N          63.3019   84.3040   10.9826 N.am    1  UNL1       -0.2747
      5 C          64.1243   83.3292   11.7722 C.2     1  UNL1        0.2442
      6 O          65.2958   82.6451   11.1321 O.2     1  UNL1       -0.2731
      7 C          62.1304   84.9881   11.6227 C.3     1  UNL1        0.1149
      8 C          61.3080   85.9630   10.8331 C.3     1  UNL1        0.1123
      9 C          60.7989   88.6743    9.0114 C.ar    1  UNL1        0.0053
     10 C          59.9765   89.6491    8.2218 C.ar    1  UNL1        0.0021
     11 C          59.1898   89.1779    7.0348 C.ar    1  UNL1        0.0712
     12 C          59.2254   87.7320    6.6373 C.ar    1  UNL1        0.0051
     13 C          60.0478   86.7572    7.4269 C.ar    1  UNL1        0.0142
     14 C          60.8346   87.2284    8.6139 C.ar    1  UNL1        0.0451
     15 C          58.3673   90.1527    6.2452 C.3     1  UNL1        0.4186
     16 F          57.5449   91.1274    5.4556 F       1  UNL1       -0.1659
     17 F          57.1156   89.4531    6.6853 F       1  UNL1       -0.1659
     18 F          59.6190   90.8523    5.8050 F       1  UNL1       -0.1659
     19 C          61.5856   89.1455   10.1984 C.3     1  UNL1        0.0780
     20 N          62.9389   89.7626   10.0043 N.3     1  UNL1       -0.2951
     21 H          63.1894   89.6211    9.0257 H       1  UNL1        0.1235
     22 C          63.1488   91.2183   10.2989 C.3     1  UNL1        0.0692
     23 C          64.2153   91.6419   11.2650 C.3     1  UNL1        0.0230
     24 C          65.2803   92.6051   10.8314 C.3     1  UNL1        0.0431
     25 C          65.9662   93.4713   11.8458 C.2     1  UNL1        0.0504
     26 O          66.8743   94.5774   11.3963 O.co2   1  UNL1       -0.5492
     27 O          65.7440   93.2316   13.3098 O.co2   1  UNL1       -0.5492
     28 C          61.0190   88.9996   11.5796 C.3     1  UNL1        0.0203
     29 C          59.3538   90.9892   11.4433 C.3     1  UNL1        0.0001
     30 C          59.6866   89.6035   11.9113 C.3     1  UNL1        0.0017
     31 C          58.6870   88.8216   12.7109 C.3     1  UNL1        0.0001
     32 C          63.7753   83.0386   13.2017 C.3     1  UNL1        0.1564
     33 N          62.6251   82.1310   13.5233 N.am    1  UNL1       -0.2727
     34 C          61.5672   82.3806   14.5570 C.3     1  UNL1        0.0943
     35 C          60.6192   81.2183   14.5403 C.3     1  UNL1        0.0311
     36 C          61.0913   80.2502   13.4963 C.3     1  UNL1        0.0870
     37 C          62.3310   80.8142   12.8677 C.2     1  UNL1        0.2260
     38 O          63.1352   80.1740   11.7754 O.2     1  UNL1       -0.2749
     39 C          64.5764   83.6556   14.3097 C.3     1  UNL1        0.0564
     40 C          64.2210   85.0197   14.8223 C.ar    1  UNL1       -0.0094
     41 C          64.6983   86.2419   14.0953 C.ar    1  UNL1       -0.0025
     42 C          64.3429   87.6061   14.6079 C.ar    1  UNL1        0.0111
     43 C          63.5103   87.7481   15.8476 C.ar    1  UNL1        0.0585
     44 CL         63.1549   89.1122   16.3602 Cl      1  UNL1       -0.0822
     45 C          63.0330   86.5259   16.5745 C.ar    1  UNL1        0.0225
     46 C          63.3884   85.1617   16.0619 C.ar    1  UNL1        0.0546
     47 CL         62.9111   83.9396   16.7889 Cl      1  UNL1       -0.0825
@<TRIPOS>UNITY_ATOM_ATTR
26 1
charge -1
@<TRIPOS>BOND
     1    29    30    1
     2    30    31    1
     3    30    28    1
     4    19    28    1
     5    19    20    1
     6    20    22    1
     7    22    23    1
     8    23    24    1
     9    24    25    1
    10    25    26   ar
    11    25    27   ar
    12    19     9    1
    13     9    10   ar
    14    10    11   ar
    15    11    15    1
    16    15    16    1
    17    15    17    1
    18    15    18    1
    19    11    12   ar
    20    12    13   ar
    21    13    14   ar
    22    14     1    1
    23     1     2    1
    24     2     3    1
    25     3     4    1
    26     4     5   am
    27     5     6    2
    28     5    32    1
    29    32    39    1
    30    39    40    1
    31    40    41   ar
    32    41    42   ar
    33    42    43   ar
    34    43    44    1
    35    43    45   ar
    36    45    46   ar
    37    46    47    1
    38    32    33    1
    39    33    34    1
    40    34    35    1
    41    35    36    1
    42    36    37    1
    43    37    38    2
    44     4     7    1
    45     7     8    1
    46    14     9   ar
    47     8     1    1
    48    46    40   ar
    49    37    33   am
    50    20    21    1
@<TRIPOS>MOLECULE
*****
 47 50 0 0 0
SMALL
GASTEIGER

@<TRIPOS>ATOM
      1 N          62.6117   89.8736   11.8336 N.pl3   1  UNL1       -0.3043
      2 C          62.2993   89.8086   13.2993 C.3     1  UNL1        0.1123
      3 C          63.1178   90.5994   14.2764 C.3     1  UNL1        0.1149
      4 N          64.2486   91.4553   13.7878 N.am    1  UNL1       -0.2747
      5 C          65.0671   92.2461   14.7649 C.2     1  UNL1        0.2442
      6 O          64.7547   92.1811   16.2305 O.2     1  UNL1       -0.2731
      7 C          64.5610   91.5204   12.3221 C.3     1  UNL1        0.1149
      8 C          63.7424   90.7295   11.3450 C.3     1  UNL1        0.1123
      9 C          61.7653   87.5854   10.9404 C.ar    1  UNL1        0.0053
     10 C          60.9468   86.7946    9.9634 C.ar    1  UNL1        0.0021
     11 C          60.1561   87.5012    8.9025 C.ar    1  UNL1        0.0712
     12 C          60.1839   88.9985    8.8186 C.ar    1  UNL1        0.0051
     13 C          61.0024   89.7893    9.7956 C.ar    1  UNL1        0.0142
     14 C          61.7931   89.0828   10.8566 C.ar    1  UNL1        0.0451
     15 C          59.3376   86.7103    7.9254 C.3     1  UNL1        0.4186
     16 F          58.5191   85.9195    6.9483 F       1  UNL1       -0.1659
     17 F          58.4962   87.9212    7.6503 F       1  UNL1       -0.1659
     18 F          60.1791   85.4994    8.2005 F       1  UNL1       -0.1659
     19 C          62.5560   86.8788   12.0013 C.3     1  UNL1        0.0780
     20 N          63.5427   87.6418   12.8346 N.3     1  UNL1       -0.2951
     21 H          63.0300   88.4093   13.2688 H       1  UNL1        0.1235
     22 C          64.2936   86.9472   13.9317 C.3     1  UNL1        0.0692
     23 C          63.9806   87.2548   15.3661 C.3     1  UNL1        0.0230
     24 C          63.6152   86.1463   16.3083 C.3     1  UNL1        0.0431
     25 C          62.4972   86.3347   17.2904 C.2     1  UNL1        0.0504
     26 O          61.0791   86.0863   16.8692 O.co2   1  UNL1       -0.5492
     27 O          62.7972   86.7716   18.6937 O.co2   1  UNL1       -0.5492
     28 C          62.3601   85.4092   12.2290 C.3     1  UNL1        0.0203
     29 C          63.3336   84.2814   10.1005 C.3     1  UNL1        0.0001
     30 C          63.2925   84.4210   11.5935 C.3     1  UNL1        0.0017
     31 C          64.1839   83.5722   12.4509 C.3     1  UNL1        0.0001
     32 C          66.1979   93.1020   14.2762 C.3     1  UNL1        0.1564
     33 N          67.4822   93.1606   15.0489 N.am    1  UNL1       -0.2727
     34 C          68.2206   94.4068   15.4387 C.3     1  UNL1        0.0943
     35 C          69.4484   93.9997   16.1981 C.3     1  UNL1        0.0311
     36 C          69.4690   92.5020   16.2776 C.3     1  UNL1        0.0870
     37 C          68.2538   91.9833   15.5673 C.2     1  UNL1        0.2260
     38 O          67.8764   90.5408   15.4042 O.2     1  UNL1       -0.2749
     39 C          66.0443   93.8993   13.0149 C.3     1  UNL1        0.0564
     40 C          66.7896   93.4959   11.7773 C.ar    1  UNL1       -0.0094
     41 C          67.6120   92.2414   11.7724 C.ar    1  UNL1       -0.0025
     42 C          68.3573   91.8381   10.5348 C.ar    1  UNL1        0.0111
     43 C          68.2803   92.6892    9.3020 C.ar    1  UNL1        0.0585
     44 CL         69.0257   92.2859    8.0644 Cl      1  UNL1       -0.0822
     45 C          67.4580   93.9437    9.3069 C.ar    1  UNL1        0.0225
     46 C          66.7127   94.3470   10.5446 C.ar    1  UNL1        0.0546
     47 CL         65.8904   95.6015   10.5495 Cl      1  UNL1       -0.0825
@<TRIPOS>UNITY_ATOM_ATTR
26 1
charge -1
@<TRIPOS>BOND
     1    29    30    1
     2    30    31    1
     3    30    28    1
     4    19    28    1
     5    19    20    1
     6    20    22    1
     7    22    23    1
     8    23    24    1
     9    24    25    1
    10    25    26   ar
    11    25    27   ar
    12    19     9    1
    13     9    10   ar
    14    10    11   ar
    15    11    15    1
    16    15    16    1
    17    15    17    1
    18    15    18    1
    19    11    12   ar
    20    12    13   ar
    21    13    14   ar
    22    14     1    1
    23     1     2    1
    24     2     3    1
    25     3     4    1
    26     4     5   am
    27     5     6    2
    28     5    32    1
    29    32    39    1
    30    39    40    1
    31    40    41   ar
    32    41    42   ar
    33    42    43   ar
    34    43    44    1
    35    43    45   ar
    36    45    46   ar
    37    46    47    1
    38    32    33    1
    39    33    34    1
    40    34    35    1
    41    35    36    1
    42    36    37    1
    43    37    38    2
    44     4     7    1
    45     7     8    1
    46    14     9   ar
    47     8     1    1
    48    46    40   ar
    49    37    33   am
    50    20    21    1
@<TRIPOS>MOLECULE
*****
 47 50 0 0 0
SMALL
GASTEIGER

@<TRIPOS>ATOM
      1 N          64.4620   90.8291   13.0302 N.pl3   1  UNL1       -0.3043
      2 C          63.3632   91.5697   12.3274 C.3     1  UNL1        0.1123
      3 C          62.3227   90.8131   11.5561 C.3     1  UNL1        0.1149
      4 N          62.3811   89.3157   11.4878 N.am    1  UNL1       -0.2747
      5 C          61.3406   88.5590   10.7166 C.2     1  UNL1        0.2442
      6 O          60.2417   89.2996   10.0137 O.2     1  UNL1       -0.2731
      7 C          63.4799   88.5751   12.1907 C.3     1  UNL1        0.1149
      8 C          64.5204   89.3319   12.9619 C.3     1  UNL1        0.1123
      9 C          66.6297   92.2606   13.0775 C.ar    1  UNL1        0.0053
     10 C          67.6701   93.0173   13.8487 C.ar    1  UNL1        0.0021
     11 C          67.5834   93.0993   15.3439 C.ar    1  UNL1        0.0712
     12 C          66.4562   92.4246   16.0680 C.ar    1  UNL1        0.0051
     13 C          65.4158   91.6679   15.2967 C.ar    1  UNL1        0.0142
     14 C          65.5026   91.5859   13.8015 C.ar    1  UNL1        0.0451
     15 C          68.6239   93.8561   16.1152 C.3     1  UNL1        0.4186
     16 F          69.6644   94.6128   16.8864 F       1  UNL1       -0.1659
     17 F          69.0436   92.5864   16.7947 F       1  UNL1       -0.1659
     18 F          68.2042   95.1258   15.4357 F       1  UNL1       -0.1659
     19 C          66.7165   92.1786   11.5822 C.3     1  UNL1        0.0780
     20 N          65.5515   92.6048   10.7389 N.3     1  UNL1       -0.2951
     21 H          64.7116   92.2495   11.1958 H       1  UNL1        0.1235
     22 C          65.3143   94.0610   10.4686 C.3     1  UNL1        0.0692
     23 C          66.1626   95.0972   11.1444 C.3     1  UNL1        0.0230
     24 C          66.2085   96.4965   10.6059 C.3     1  UNL1        0.0431
     25 C          66.2861   96.7285    9.1260 C.2     1  UNL1        0.0504
     26 O          65.0276   96.8478    8.3185 O.co2   1  UNL1       -0.5492
     27 O          67.6222   96.8411    8.4536 O.co2   1  UNL1       -0.5492
     28 C          67.9681   91.6704   10.9303 C.3     1  UNL1        0.0203
     29 C          68.7664   93.7007    9.5194 C.3     1  UNL1        0.0001
     30 C          68.4177   92.2452    9.6198 C.3     1  UNL1        0.0017
     31 C          68.5186   91.3646    8.4098 C.3     1  UNL1        0.0001
     32 C          61.3990   87.0618   10.6483 C.3     1  UNL1        0.1564
     33 N          61.4908   86.3747    9.3180 N.am    1  UNL1       -0.2727
     34 C          62.7143   85.7232    8.7448 C.3     1  UNL1        0.0943
     35 C          62.3550   85.1643    7.4000 C.3     1  UNL1        0.0311
     36 C          60.9093   85.4704    7.1421 C.3     1  UNL1        0.0870
     37 C          60.3752   86.2184    8.3275 C.2     1  UNL1        0.2260
     38 O          58.9720   86.7218    8.4932 O.2     1  UNL1       -0.2749
     39 C          61.3655   86.2515   11.9102 C.3     1  UNL1        0.0564
     40 C          62.2734   85.0676   12.0656 C.ar    1  UNL1       -0.0094
     41 C          62.1144   83.8774   11.1664 C.ar    1  UNL1       -0.0025
     42 C          63.0223   82.6935   11.3218 C.ar    1  UNL1        0.0111
     43 C          64.0890   82.6997   12.3763 C.ar    1  UNL1        0.0585
     44 CL         64.9969   81.5158   12.5317 Cl      1  UNL1       -0.0822
     45 C          64.2479   83.8898   13.2755 C.ar    1  UNL1        0.0225
     46 C          63.3401   85.0737   13.1201 C.ar    1  UNL1        0.0546
     47 CL         63.4990   86.2638   14.0192 Cl      1  UNL1       -0.0825
@<TRIPOS>UNITY_ATOM_ATTR
26 1
charge -1
@<TRIPOS>BOND
     1    29    30    1
     2    30    31    1
     3    30    28    1
     4    19    28    1
     5    19    20    1
     6    20    22    1
     7    22    23    1
     8    23    24    1
     9    24    25    1
    10    25    26   ar
    11    25    27   ar
    12    19     9    1
    13     9    10   ar
    14    10    11   ar
    15    11    15    1
    16    15    16    1
    17    15    17    1
    18    15    18    1
    19    11    12   ar
    20    12    13   ar
    21    13    14   ar
    22    14     1    1
    23     1     2    1
    24     2     3    1
    25     3     4    1
    26     4     5   am
    27     5     6    2
    28     5    32    1
    29    32    39    1
    30    39    40    1
    31    40    41   ar
    32    41    42   ar
    33    42    43   ar
    34    43    44    1
    35    43    45   ar
    36    45    46   ar
    37    46    47    1
    38    32    33    1
    39    33    34    1
    40    34    35    1
    41    35    36    1
    42    36    37    1
    43    37    38    2
    44     4     7    1
    45     7     8    1
    46    14     9   ar
    47     8     1    1
    48    46    40   ar
    49    37    33   am
    50    20    21    1
@<TRIPOS>MOLECULE
*****
 47 50 0 0 0
SMALL
GASTEIGER

@<TRIPOS>ATOM
      1 N          62.8585   89.7338   11.9369 N.pl3   1  UNL1       -0.3043
      2 C          62.4190   89.8009   13.3695 C.3     1  UNL1        0.1123
      3 C          63.1518   90.6808   14.3384 C.3     1  UNL1        0.1149
      4 N          64.3243   91.4935   13.8747 N.am    1  UNL1       -0.2747
      5 C          65.0571   92.3734   14.8436 C.2     1  UNL1        0.2442
      6 O          64.6176   92.4405   16.2762 O.2     1  UNL1       -0.2731
      7 C          64.7638   91.4264   12.4421 C.3     1  UNL1        0.1149
      8 C          64.0309   90.5465   11.4732 C.3     1  UNL1        0.1123
      9 C          62.0948   87.3691   11.1785 C.ar    1  UNL1        0.0053
     10 C          61.3619   86.4893   10.2096 C.ar    1  UNL1        0.0021
     11 C          60.6599   87.0943    9.0302 C.ar    1  UNL1        0.0712
     12 C          60.6907   88.5791    8.8196 C.ar    1  UNL1        0.0051
     13 C          61.4236   89.4589    9.7885 C.ar    1  UNL1        0.0142
     14 C          62.1256   88.8539   10.9680 C.ar    1  UNL1        0.0451
     15 C          59.9270   86.2144    8.0613 C.3     1  UNL1        0.4186
     16 F          59.1942   85.3346    7.0924 F       1  UNL1       -0.1659
     17 F          61.2343   85.6707    7.5663 F       1  UNL1       -0.1659
     18 F          58.6196   86.7582    8.5563 F       1  UNL1       -0.1659
     19 C          62.7969   86.7641   12.3580 C.3     1  UNL1        0.0780
     20 N          62.4764   85.3619   12.7833 N.3     1  UNL1       -0.2951
     21 H          61.5107   85.1840   12.5074 H       1  UNL1        0.1235
     22 C          63.2932   84.2156   12.2647 C.3     1  UNL1        0.0692
     23 C          62.6126   82.9793   11.7562 C.3     1  UNL1        0.0230
     24 C          62.6392   81.7198   12.5704 C.3     1  UNL1        0.0431
     25 C          62.2076   81.7460   14.0067 C.2     1  UNL1        0.0504
     26 O          63.0973   82.3611   15.0461 O.co2   1  UNL1       -0.5492
     27 O          60.8864   81.1570   14.4037 O.co2   1  UNL1       -0.5492
     28 C          63.8195   87.5614   13.1121 C.3     1  UNL1        0.0203
     29 C          65.2380   85.9509   14.5763 C.3     1  UNL1        0.0001
     30 C          64.2822   87.1014   14.4627 C.3     1  UNL1        0.0017
     31 C          63.7892   87.7918   15.6997 C.3     1  UNL1        0.0001
     32 C          66.2294   93.1861   14.3799 C.3     1  UNL1        0.1564
     33 N          67.5159   93.1544   15.1507 N.am    1  UNL1       -0.2727
     34 C          68.3091   94.3487   15.5916 C.3     1  UNL1        0.0943
     35 C          69.5184   93.8554   16.3294 C.3     1  UNL1        0.0311
     36 C          69.4725   92.3561   16.3444 C.3     1  UNL1        0.0870
     37 C          68.2349   91.9229   15.6160 C.2     1  UNL1        0.2260
     38 O          67.7938   90.5069   15.3921 O.2     1  UNL1       -0.2749
     39 C          66.1154   94.0305   13.1454 C.3     1  UNL1        0.0564
     40 C          66.7993   93.6050   11.8799 C.ar    1  UNL1       -0.0094
     41 C          67.6402   92.3630   11.8630 C.ar    1  UNL1       -0.0025
     42 C          68.3241   91.9375   10.5976 C.ar    1  UNL1        0.0111
     43 C          68.1671   92.7541    9.3491 C.ar    1  UNL1        0.0585
     44 CL         68.8510   92.3287    8.0837 Cl      1  UNL1       -0.0822
     45 C          67.3262   93.9961    9.3661 C.ar    1  UNL1        0.0225
     46 C          66.6423   94.4216   10.6315 C.ar    1  UNL1        0.0546
     47 CL         65.8015   95.6636   10.6485 Cl      1  UNL1       -0.0825
@<TRIPOS>UNITY_ATOM_ATTR
26 1
charge -1
@<TRIPOS>BOND
     1    29    30    1
     2    30    31    1
     3    30    28    1
     4    19    28    1
     5    19    20    1
     6    20    22    1
     7    22    23    1
     8    23    24    1
     9    24    25    1
    10    25    26   ar
    11    25    27   ar
    12    19     9    1
    13     9    10   ar
    14    10    11   ar
    15    11    15    1
    16    15    16    1
    17    15    17    1
    18    15    18    1
    19    11    12   ar
    20    12    13   ar
    21    13    14   ar
    22    14     1    1
    23     1     2    1
    24     2     3    1
    25     3     4    1
    26     4     5   am
    27     5     6    2
    28     5    32    1
    29    32    39    1
    30    39    40    1
    31    40    41   ar
    32    41    42   ar
    33    42    43   ar
    34    43    44    1
    35    43    45   ar
    36    45    46   ar
    37    46    47    1
    38    32    33    1
    39    33    34    1
    40    34    35    1
    41    35    36    1
    42    36    37    1
    43    37    38    2
    44     4     7    1
    45     7     8    1
    46    14     9   ar
    47     8     1    1
    48    46    40   ar
    49    37    33   am
    50    20    21    1
@<TRIPOS>MOLECULE
*****
 47 50 0 0 0
SMALL
GASTEIGER

@<TRIPOS>ATOM
      1 N          64.1949   90.9416   12.8958 N.pl3   1  UNL1       -0.3043
      2 C          62.8722   90.7421   13.5746 C.3     1  UNL1        0.1123
      3 C          61.7555   90.0488   12.8520 C.3     1  UNL1        0.1149
      4 N          61.9614   89.5550   11.4506 N.am    1  UNL1       -0.2747
      5 C          60.8446   88.8617   10.7280 C.2     1  UNL1        0.2442
      6 O          59.5219   88.6622   11.4068 O.2     1  UNL1       -0.2731
      7 C          63.2840   89.7546   10.7718 C.3     1  UNL1        0.1149
      8 C          64.4008   90.4479   11.4945 C.3     1  UNL1        0.1123
      9 C          66.2153   92.5749   12.8770 C.ar    1  UNL1        0.0053
     10 C          67.3320   93.2682   13.5997 C.ar    1  UNL1        0.0021
     11 C          67.5451   93.0215   15.0638 C.ar    1  UNL1        0.0712
     12 C          66.6415   92.0815   15.8053 C.ar    1  UNL1        0.0051
     13 C          65.5248   91.3883   15.0826 C.ar    1  UNL1        0.0142
     14 C          65.3117   91.6350   13.6185 C.ar    1  UNL1        0.0451
     15 C          68.6619   93.7148   15.7865 C.3     1  UNL1        0.4186
     16 F          69.7786   94.4081   16.5091 F       1  UNL1       -0.1659
     17 F          69.1990   92.3866   16.2306 F       1  UNL1       -0.1659
     18 F          68.1248   95.0430   15.3423 F       1  UNL1       -0.1659
     19 C          66.0022   92.8216   11.4129 C.3     1  UNL1        0.0780
     20 N          66.7723   92.0288   10.3988 N.3     1  UNL1       -0.2951
     21 H          66.1934   91.9818    9.5603 H       1  UNL1        0.1235
     22 C          68.1313   92.4891    9.9615 C.3     1  UNL1        0.0692
     23 C          68.3109   93.8677    9.3982 C.3     1  UNL1        0.0230
     24 C          67.5697   94.2739    8.1590 C.3     1  UNL1        0.0431
     25 C          67.1614   95.7041    7.9641 C.2     1  UNL1        0.0504
     26 O          66.0710   96.0471    6.9928 O.co2   1  UNL1       -0.5492
     27 O          67.8435   96.7912    8.7406 O.co2   1  UNL1       -0.5492
     28 C          65.0191   93.8612   10.9627 C.3     1  UNL1        0.0203
     29 C          64.6847   96.2849   10.0886 C.3     1  UNL1        0.0001
     30 C          65.4020   95.3114   10.9763 C.3     1  UNL1        0.0017
     31 C          66.5022   95.7882   11.8776 C.3     1  UNL1        0.0001
     32 C          61.0505   88.3680    9.3267 C.3     1  UNL1        0.1564
     33 N          60.1253   88.8105    8.2320 N.am    1  UNL1       -0.2727
     34 C          60.1730   90.1277    7.5161 C.3     1  UNL1        0.0943
     35 C          59.0672   90.1448    6.5027 C.3     1  UNL1        0.0311
     36 C          58.3361   88.8381    6.5924 C.3     1  UNL1        0.0870
     37 C          58.9900   88.0134    7.6611 C.2     1  UNL1        0.2260
     38 O          58.5807   86.6340    8.0847 O.2     1  UNL1       -0.2749
     39 C          62.1816   87.4317    9.0199 C.3     1  UNL1        0.0564
     40 C          62.4025   86.2176    9.8727 C.ar    1  UNL1       -0.0094
     41 C          62.1422   86.2803   11.3486 C.ar    1  UNL1       -0.0025
     42 C          62.3631   85.0662   12.2014 C.ar    1  UNL1        0.0111
     43 C          62.8443   83.7894   11.5781 C.ar    1  UNL1        0.0585
     44 CL         63.0652   82.5753   12.4309 Cl      1  UNL1       -0.0822
     45 C          63.1046   83.7268   10.1023 C.ar    1  UNL1        0.0225
     46 C          62.8837   84.9409    9.2495 C.ar    1  UNL1        0.0546
     47 CL         63.1440   84.8783    7.7736 Cl      1  UNL1       -0.0825
@<TRIPOS>UNITY_ATOM_ATTR
26 1
charge -1
@<TRIPOS>BOND
     1    29    30    1
     2    30    31    1
     3    30    28    1
     4    19    28    1
     5    19    20    1
     6    20    22    1
     7    22    23    1
     8    23    24    1
     9    24    25    1
    10    25    26   ar
    11    25    27   ar
    12    19     9    1
    13     9    10   ar
    14    10    11   ar
    15    11    15    1
    16    15    16    1
    17    15    17    1
    18    15    18    1
    19    11    12   ar
    20    12    13   ar
    21    13    14   ar
    22    14     1    1
    23     1     2    1
    24     2     3    1
    25     3     4    1
    26     4     5   am
    27     5     6    2
    28     5    32    1
    29    32    39    1
    30    39    40    1
    31    40    41   ar
    32    41    42   ar
    33    42    43   ar
    34    43    44    1
    35    43    45   ar
    36    45    46   ar
    37    46    47    1
    38    32    33    1
    39    33    34    1
    40    34    35    1
    41    35    36    1
    42    36    37    1
    43    37    38    2
    44     4     7    1
    45     7     8    1
    46    14     9   ar
    47     8     1    1
    48    46    40   ar
    49    37    33   am
    50    20    21    1
@<TRIPOS>MOLECULE
*****
 47 50 0 0 0
SMALL
GASTEIGER

@<TRIPOS>ATOM
      1 N          63.3452   90.5772   12.0040 N.pl3   1  UNL1       -0.3043
      2 C          62.0468   90.2937   12.6997 C.3     1  UNL1        0.1123
      3 C          60.9295   89.6220   11.9579 C.3     1  UNL1        0.1149
      4 N          61.1105   89.2336   10.5203 N.am    1  UNL1       -0.2747
      5 C          59.9932   88.5619    9.7786 C.2     1  UNL1        0.2442
      6 O          58.6948   88.2784   10.4743 O.2     1  UNL1       -0.2731
      7 C          62.4088   89.5171    9.8246 C.3     1  UNL1        0.1149
      8 C          63.5262   90.1889   10.5665 C.3     1  UNL1        0.1123
      9 C          64.8497   90.7695   14.1134 C.ar    1  UNL1        0.0053
     10 C          65.9670   91.4413   14.8552 C.ar    1  UNL1        0.0021
     11 C          66.6971   92.5925   14.2294 C.ar    1  UNL1        0.0712
     12 C          66.3100   93.0720   12.8619 C.ar    1  UNL1        0.0051
     13 C          65.1927   92.4002   12.1201 C.ar    1  UNL1        0.0142
     14 C          64.4625   91.2490   12.7458 C.ar    1  UNL1        0.0451
     15 C          67.8145   93.2643   14.9713 C.3     1  UNL1        0.4186
     16 F          68.9318   93.9361   15.7131 F       1  UNL1       -0.1659
     17 F          68.3688   91.9232   15.3508 F       1  UNL1       -0.1659
     18 F          67.2602   94.6055   14.5917 F       1  UNL1       -0.1659
     19 C          64.1196   89.6183   14.7391 C.3     1  UNL1        0.0780
     20 N          64.0986   88.2831   14.0560 N.3     1  UNL1       -0.2951
     21 H          64.5234   88.4152   13.1381 H       1  UNL1        0.1235
     22 C          64.7854   87.1076   14.6857 C.3     1  UNL1        0.0692
     23 C          64.3678   85.7129   14.3242 C.3     1  UNL1        0.0230
     24 C          63.9618   84.7491   15.3995 C.3     1  UNL1        0.0431
     25 C          62.6109   84.0989   15.3529 C.2     1  UNL1        0.0504
     26 O          61.3726   84.9297   15.5163 O.co2   1  UNL1       -0.5492
     27 O          62.4981   82.6180   15.1430 O.co2   1  UNL1       -0.5492
     28 C          63.4104   89.8023   16.0480 C.3     1  UNL1        0.0203
     29 C          62.8779   87.7019   17.4815 C.3     1  UNL1        0.0001
     30 C          62.4340   88.7678   16.5239 C.3     1  UNL1        0.0017
     31 C          61.0138   88.7991   16.0423 C.3     1  UNL1        0.0001
     32 C          60.1742   88.1736    8.3411 C.3     1  UNL1        0.1564
     33 N          59.9139   89.1751    7.2551 N.am    1  UNL1       -0.2727
     34 C          60.9374   90.0612    6.6092 C.3     1  UNL1        0.0943
     35 C          60.2405   90.9001    5.5793 C.3     1  UNL1        0.0311
     36 C          58.7863   90.5324    5.5887 C.3     1  UNL1        0.0870
     37 C          58.5844   89.4662    6.6245 C.2     1  UNL1        0.2260
     38 O          57.2818   88.8071    6.9690 O.2     1  UNL1       -0.2749
     39 C          60.6155   86.7837    7.9895 C.3     1  UNL1        0.0564
     40 C          61.4558   85.9976    8.9518 C.ar    1  UNL1       -0.0094
     41 C          61.2057   86.1050   10.4269 C.ar    1  UNL1       -0.0025
     42 C          62.0460   85.3189   11.3892 C.ar    1  UNL1        0.0111
     43 C          63.1364   84.4255   10.8764 C.ar    1  UNL1        0.0585
     44 CL         63.9767   83.6395   11.8387 Cl      1  UNL1       -0.0822
     45 C          63.3865   84.3182    9.4013 C.ar    1  UNL1        0.0225
     46 C          62.5462   85.1043    8.4390 C.ar    1  UNL1        0.0546
     47 CL         62.7962   84.9970    6.9639 Cl      1  UNL1       -0.0825
@<TRIPOS>UNITY_ATOM_ATTR
26 1
charge -1
@<TRIPOS>BOND
     1    29    30    1
     2    30    31    1
     3    30    28    1
     4    19    28    1
     5    19    20    1
     6    20    22    1
     7    22    23    1
     8    23    24    1
     9    24    25    1
    10    25    26   ar
    11    25    27   ar
    12    19     9    1
    13     9    10   ar
    14    10    11   ar
    15    11    15    1
    16    15    16    1
    17    15    17    1
    18    15    18    1
    19    11    12   ar
    20    12    13   ar
    21    13    14   ar
    22    14     1    1
    23     1     2    1
    24     2     3    1
    25     3     4    1
    26     4     5   am
    27     5     6    2
    28     5    32    1
    29    32    39    1
    30    39    40    1
    31    40    41   ar
    32    41    42   ar
    33    42    43   ar
    34    43    44    1
    35    43    45   ar
    36    45    46   ar
    37    46    47    1
    38    32    33    1
    39    33    34    1
    40    34    35    1
    41    35    36    1
    42    36    37    1
    43    37    38    2
    44     4     7    1
    45     7     8    1
    46    14     9   ar
    47     8     1    1
    48    46    40   ar
    49    37    33   am
    50    20    21    1
@<TRIPOS>MOLECULE
*****
 47 50 0 0 0
SMALL
GASTEIGER

@<TRIPOS>ATOM
      1 N          62.7602   87.1335   10.3831 N.pl3   1  UNL1       -0.3043
      2 C          62.7196   86.4538   11.7197 C.3     1  UNL1        0.1123
      3 C          63.0997   87.2106   12.9578 C.3     1  UNL1        0.1149
      4 N          63.5203   88.6471   12.8593 N.am    1  UNL1       -0.2747
      5 C          63.9004   89.4038   14.0973 C.2     1  UNL1        0.2442
      6 O          63.8598   88.7242   15.4339 O.2     1  UNL1       -0.2731
      7 C          63.5609   89.3267   11.5227 C.3     1  UNL1        0.1149
      8 C          63.1808   88.5699   10.2846 C.3     1  UNL1        0.1123
      9 C          61.0258   86.5743    8.5313 C.ar    1  UNL1        0.0053
     10 C          60.6458   85.8174    7.2933 C.ar    1  UNL1        0.0021
     11 C          61.6201   84.8629    6.6690 C.ar    1  UNL1        0.0712
     12 C          62.9744   84.6653    7.2828 C.ar    1  UNL1        0.0051
     13 C          63.3544   85.4221    8.5208 C.ar    1  UNL1        0.0142
     14 C          62.3801   86.3766    9.1450 C.ar    1  UNL1        0.0451
     15 C          61.2400   84.1061    5.4309 C.3     1  UNL1        0.4186
     16 F          60.8599   83.3493    4.1929 F       1  UNL1       -0.1659
     17 F          62.4316   84.6736    4.7183 F       1  UNL1       -0.1659
     18 F          60.0483   83.5386    6.1436 F       1  UNL1       -0.1659
     19 C          60.0515   87.5288    9.1556 C.3     1  UNL1        0.0780
     20 N          59.1513   88.3566    8.2870 N.3     1  UNL1       -0.2951
     21 H          58.5207   88.8594    8.9114 H       1  UNL1        0.1235
     22 C          59.7377   89.3733    7.3530 C.3     1  UNL1        0.0692
     23 C          58.9678   89.8118    6.1426 C.3     1  UNL1        0.0230
     24 C          59.5543   90.8283    5.2084 C.3     1  UNL1        0.0431
     25 C          58.7342   92.0051    4.7697 C.2     1  UNL1        0.0504
     26 O          57.2502   92.0084    4.9885 O.co2   1  UNL1       -0.5492
     27 O          59.3979   93.1786    4.1121 O.co2   1  UNL1       -0.5492
     28 C          59.9774   87.6555   10.6483 C.3     1  UNL1        0.0203
     29 C          60.1816   90.2455   10.6570 C.3     1  UNL1        0.0001
     30 C          59.6600   88.9815   11.2737 C.3     1  UNL1        0.0017
     31 C          58.8211   89.0434   12.5155 C.3     1  UNL1        0.0001
     32 C          64.3210   90.8403   13.9988 C.3     1  UNL1        0.1564
     33 N          65.2620   91.4176   15.0143 N.am    1  UNL1       -0.2727
     34 C          66.7600   91.3912   14.9435 C.3     1  UNL1        0.0943
     35 C          67.2940   92.0800   16.1643 C.3     1  UNL1        0.0311
     36 C          66.1260   92.5321   16.9897 C.3     1  UNL1        0.0870
     37 C          64.8700   92.1228   16.2789 C.2     1  UNL1        0.2260
     38 O          63.4684   92.3744   16.7500 O.2     1  UNL1       -0.2749
     39 C          63.8006   91.6994   12.8847 C.3     1  UNL1        0.0564
     40 C          64.7447   92.5568   12.0951 C.ar    1  UNL1       -0.0094
     41 C          65.8139   93.3393   12.7984 C.ar    1  UNL1       -0.0025
     42 C          66.7580   94.1967   12.0088 C.ar    1  UNL1        0.0111
     43 C          66.6330   94.2715   10.5158 C.ar    1  UNL1        0.0585
     44 CL         67.5771   95.1289    9.7262 Cl      1  UNL1       -0.0822
     45 C          65.5639   93.4890    9.8126 C.ar    1  UNL1        0.0225
     46 C          64.6197   92.6317   10.6022 C.ar    1  UNL1        0.0546
     47 CL         63.5506   91.8492    9.8990 Cl      1  UNL1       -0.0825
@<TRIPOS>UNITY_ATOM_ATTR
26 1
charge -1
@<TRIPOS>BOND
     1    29    30    1
     2    30    31    1
     3    30    28    1
     4    19    28    1
     5    19    20    1
     6    20    22    1
     7    22    23    1
     8    23    24    1
     9    24    25    1
    10    25    26   ar
    11    25    27   ar
    12    19     9    1
    13     9    10   ar
    14    10    11   ar
    15    11    15    1
    16    15    16    1
    17    15    17    1
    18    15    18    1
    19    11    12   ar
    20    12    13   ar
    21    13    14   ar
    22    14     1    1
    23     1     2    1
    24     2     3    1
    25     3     4    1
    26     4     5   am
    27     5     6    2
    28     5    32    1
    29    32    39    1
    30    39    40    1
    31    40    41   ar
    32    41    42   ar
    33    42    43   ar
    34    43    44    1
    35    43    45   ar
    36    45    46   ar
    37    46    47    1
    38    32    33    1
    39    33    34    1
    40    34    35    1
    41    35    36    1
    42    36    37    1
    43    37    38    2
    44     4     7    1
    45     7     8    1
    46    14     9   ar
    47     8     1    1
    48    46    40   ar
    49    37    33   am
    50    20    21    1
