@<TRIPOS>MOLECULE
*****
 24 26 0 0 0
SMALL
GASTEIGER

@<TRIPOS>ATOM
      1 S          64.0940   91.3106   15.0115 S.3     1  UNL1       -0.0487
      2 C          64.2530   91.6523   11.7700 C.3     1  UNL1        0.1340
      3 N          65.3439   91.9806   12.7458 N.ar    1  UNL1       -0.2878
      4 C          65.2708   91.8235   14.2357 C.ar    1  UNL1        0.1973
      5 N          66.5812   92.2695   14.8137 N.ar    1  UNL1       -0.1218
      6 N          67.4642   92.7022   13.6810 N.ar    1  UNL1       -0.1277
      7 C          66.6995   92.5236   12.4029 C.ar    1  UNL1        0.1729
      8 C          67.2021   92.8336   11.0240 C.ar    1  UNL1        0.0654
      9 C          68.1502   91.9928   10.2214 C.ar    1  UNL1        0.0101
     10 C          68.3790   92.6784    8.9071 C.ar    1  UNL1        0.0076
     11 C          67.5722   93.9430    8.8973 C.ar    1  UNL1        0.0355
     12 S          66.8449   94.0389   10.2057 S.2     1  UNL1       -0.0833
     13 C          63.9474   89.8397   15.2669 C.ar    1  UNL1        0.0323
     14 C          63.2512   89.3592   16.5055 C.ar    1  UNL1        0.0067
     15 C          63.1046   87.8884   16.7608 C.ar    1  UNL1        0.0051
     16 C          63.6544   86.8981   15.7774 C.ar    1  UNL1        0.0554
     17 C          64.3506   87.3786   14.5388 C.ar    1  UNL1        0.0051
     18 C          64.4972   88.8494   14.2835 C.ar    1  UNL1        0.0067
     19 C          63.5078   85.4272   16.0328 C.2     1  UNL1        0.2677
     20 O          62.3689   84.9207   16.8671 O.2     1  UNL1       -0.2681
     21 N          64.5002   84.4629   15.4538 N.am    1  UNL1       -0.1934
     22 O          64.3537   82.9921   15.7091 O.3     1  UNL1       -0.2949
     23 H          65.2478   84.7954   14.9061 H       1  UNL1        0.1825
     24 H          63.5718   82.8361   16.2617 H       1  UNL1        0.2414
@<TRIPOS>BOND
     1     2     3    1
     2     3     4   ar
     3     4     1    1
     4     1    13    1
     5    13    14   ar
     6    14    15   ar
     7    15    16   ar
     8    16    19    1
     9    19    20    2
    10    19    21   am
    11    21    22    1
    12    16    17   ar
    13    17    18   ar
    14     4     5   ar
    15     5     6   ar
    16     6     7   ar
    17     7     8    1
    18     8     9   ar
    19     9    10   ar
    20    10    11   ar
    21    11    12   ar
    22     7     3   ar
    23    12     8   ar
    24    18    13   ar
    25    21    23    1
    26    22    24    1
@<TRIPOS>MOLECULE
*****
 24 26 0 0 0
SMALL
GASTEIGER

@<TRIPOS>ATOM
      1 S          63.0833   90.1905   13.2422 S.3     1  UNL1       -0.0487
      2 C          63.9501   91.5733   10.4162 C.3     1  UNL1        0.1340
      3 N          64.5244   91.8896   11.7653 N.ar    1  UNL1       -0.2878
      4 C          64.1260   91.2540   13.0643 C.ar    1  UNL1        0.1973
      5 N          64.9533   91.8687   14.1541 N.ar    1  UNL1       -0.1218
      6 N          65.8631   92.8842   13.5287 N.ar    1  UNL1       -0.1277
      7 C          65.5980   92.8971   12.0523 C.ar    1  UNL1        0.1729
      8 C          66.2858   93.7651   11.0406 C.ar    1  UNL1        0.0654
      9 C          67.2340   93.2974    9.9767 C.ar    1  UNL1        0.0101
     10 C          67.6804   94.4964    9.1938 C.ar    1  UNL1        0.0076
     11 C          67.0079   95.7053    9.7738 C.ar    1  UNL1        0.0355
     12 S          66.1460   95.2533   10.9152 S.2     1  UNL1       -0.0833
     13 C          62.2787   89.7246   12.0650 C.ar    1  UNL1        0.0323
     14 C          62.6722   88.4747   11.3350 C.ar    1  UNL1        0.0067
     15 C          61.8676   88.0089   10.1579 C.ar    1  UNL1        0.0051
     16 C          60.6695   88.7930    9.7108 C.ar    1  UNL1        0.0554
     17 C          60.2761   90.0429   10.4407 C.ar    1  UNL1        0.0051
     18 C          61.0806   90.5087   11.6178 C.ar    1  UNL1        0.0067
     19 C          59.8650   88.3271    8.5336 C.2     1  UNL1        0.2677
     20 O          59.6845   89.2251    7.3458 O.2     1  UNL1       -0.2681
     21 N          59.2409   86.9631    8.5443 N.am    1  UNL1       -0.1934
     22 O          58.4363   86.4972    7.3671 O.3     1  UNL1       -0.2949
     23 H          59.3593   86.3737    9.3239 H       1  UNL1        0.1825
     24 H          58.4190   87.1930    6.6915 H       1  UNL1        0.2414
@<TRIPOS>BOND
     1     2     3    1
     2     3     4   ar
     3     4     1    1
     4     1    13    1
     5    13    14   ar
     6    14    15   ar
     7    15    16   ar
     8    16    19    1
     9    19    20    2
    10    19    21   am
    11    21    22    1
    12    16    17   ar
    13    17    18   ar
    14     4     5   ar
    15     5     6   ar
    16     6     7   ar
    17     7     8    1
    18     8     9   ar
    19     9    10   ar
    20    10    11   ar
    21    11    12   ar
    22     7     3   ar
    23    12     8   ar
    24    18    13   ar
    25    21    23    1
    26    22    24    1
@<TRIPOS>MOLECULE
*****
 24 26 0 0 0
SMALL
GASTEIGER

@<TRIPOS>ATOM
      1 S          62.2656   89.7795   12.3550 S.3     1  UNL1       -0.0487
      2 C          61.3406   89.1820    9.2830 C.3     1  UNL1        0.1340
      3 N          61.8916   88.1758   10.2494 N.ar    1  UNL1       -0.2878
      4 C          62.3168   88.4505   11.6614 C.ar    1  UNL1        0.1973
      5 N          62.8023   87.1627   12.2582 N.ar    1  UNL1       -0.1218
      6 N          62.6771   86.0922   11.2150 N.ar    1  UNL1       -0.1277
      7 C          62.1143   86.7184    9.9735 C.ar    1  UNL1        0.1729
      8 C          61.8250   86.0112    8.6827 C.ar    1  UNL1        0.0654
      9 C          62.7962   85.1844    7.8934 C.ar    1  UNL1        0.0101
     10 C          62.0851   84.6688    6.6774 C.ar    1  UNL1        0.0076
     11 C          60.6743   85.1770    6.7152 C.ar    1  UNL1        0.0355
     12 S          60.5136   86.0066    7.9545 S.2     1  UNL1       -0.0833
     13 C          63.5365   90.4527   12.7811 C.ar    1  UNL1        0.0323
     14 C          64.1169   91.5562   11.9472 C.ar    1  UNL1        0.0067
     15 C          65.3878   92.2292   12.3734 C.ar    1  UNL1        0.0051
     16 C          66.0784   91.7988   13.6335 C.ar    1  UNL1        0.0554
     17 C          65.4980   90.6953   14.4674 C.ar    1  UNL1        0.0051
     18 C          64.2271   90.0222   14.0412 C.ar    1  UNL1        0.0067
     19 C          67.3494   92.4720   14.0597 C.2     1  UNL1        0.2677
     20 O          67.2959   93.7747   14.8013 O.2     1  UNL1       -0.2681
     21 N          68.6737   91.8424   13.7443 N.am    1  UNL1       -0.1934
     22 O          69.9447   92.5155   14.1704 O.3     1  UNL1       -0.2949
     23 H          68.7088   90.9873   13.2575 H       1  UNL1        0.1825
     24 H          69.7337   93.3408   14.6344 H       1  UNL1        0.2414
@<TRIPOS>BOND
     1     2     3    1
     2     3     4   ar
     3     4     1    1
     4     1    13    1
     5    13    14   ar
     6    14    15   ar
     7    15    16   ar
     8    16    19    1
     9    19    20    2
    10    19    21   am
    11    21    22    1
    12    16    17   ar
    13    17    18   ar
    14     4     5   ar
    15     5     6   ar
    16     6     7   ar
    17     7     8    1
    18     8     9   ar
    19     9    10   ar
    20    10    11   ar
    21    11    12   ar
    22     7     3   ar
    23    12     8   ar
    24    18    13   ar
    25    21    23    1
    26    22    24    1
@<TRIPOS>MOLECULE
*****
 24 26 0 0 0
SMALL
GASTEIGER

@<TRIPOS>ATOM
      1 S          61.7092   89.8789   12.2066 S.3     1  UNL1       -0.0487
      2 C          63.5963   90.3958   14.8183 C.3     1  UNL1        0.1340
      3 N          63.8699   90.8761   13.4239 N.ar    1  UNL1       -0.2878
      4 C          63.0025   90.6385   12.2234 C.ar    1  UNL1        0.1973
      5 N          63.6556   91.2939   11.0427 N.ar    1  UNL1       -0.1218
      6 N          64.9265   91.9365   11.5134 N.ar    1  UNL1       -0.1277
      7 C          65.0590   91.6783   12.9851 C.ar    1  UNL1        0.1729
      8 C          66.1832   92.1411   13.8638 C.ar    1  UNL1        0.0654
      9 C          67.1487   91.2589   14.5983 C.ar    1  UNL1        0.0101
     10 C          68.1016   92.1398   15.3506 C.ar    1  UNL1        0.0076
     11 C          67.7249   93.5665   15.0811 C.ar    1  UNL1        0.0355
     12 S          66.5393   93.5673   14.1622 S.2     1  UNL1       -0.0833
     13 C          61.4072   88.9370   11.0789 C.ar    1  UNL1        0.0323
     14 C          62.0956   87.6062   11.0084 C.ar    1  UNL1        0.0067
     15 C          61.7936   86.6644    9.8807 C.ar    1  UNL1        0.0051
     16 C          60.8030   87.0534    8.8235 C.ar    1  UNL1        0.0554
     17 C          60.1146   88.3842    8.8941 C.ar    1  UNL1        0.0051
     18 C          60.4167   89.3260   10.0217 C.ar    1  UNL1        0.0067
     19 C          60.5010   86.1115    7.6958 C.2     1  UNL1        0.2677
     20 O          59.1240   86.0690    7.1025 O.2     1  UNL1       -0.2681
     21 N          61.5759   85.2121    7.1615 N.am    1  UNL1       -0.1934
     22 O          61.2739   84.2702    6.0337 O.3     1  UNL1       -0.2949
     23 H          62.4797   85.2400    7.5509 H       1  UNL1        0.1825
     24 H          60.3457   84.3688    5.7699 H       1  UNL1        0.2414
@<TRIPOS>BOND
     1     2     3    1
     2     3     4   ar
     3     4     1    1
     4     1    13    1
     5    13    14   ar
     6    14    15   ar
     7    15    16   ar
     8    16    19    1
     9    19    20    2
    10    19    21   am
    11    21    22    1
    12    16    17   ar
    13    17    18   ar
    14     4     5   ar
    15     5     6   ar
    16     6     7   ar
    17     7     8    1
    18     8     9   ar
    19     9    10   ar
    20    10    11   ar
    21    11    12   ar
    22     7     3   ar
    23    12     8   ar
    24    18    13   ar
    25    21    23    1
    26    22    24    1
@<TRIPOS>MOLECULE
*****
 24 26 0 0 0
SMALL
GASTEIGER

@<TRIPOS>ATOM
      1 S          63.6711   90.6549   13.2152 S.3     1  UNL1       -0.0487
      2 C          61.7914   90.3994   10.5598 C.3     1  UNL1        0.1340
      3 N          62.3569   89.2587   11.3528 N.ar    1  UNL1       -0.2878
      4 C          63.2209   89.3761   12.5733 C.ar    1  UNL1        0.1973
      5 N          63.5557   87.9901   13.0393 N.ar    1  UNL1       -0.1218
      6 N          62.8986   87.0162   12.1068 N.ar    1  UNL1       -0.1277
      7 C          62.1577   87.8002   11.0644 C.ar    1  UNL1        0.1729
      8 C          61.3580   87.2264    9.9325 C.ar    1  UNL1        0.0654
      9 C          59.9167   87.5163    9.6355 C.ar    1  UNL1        0.0101
     10 C          59.5271   86.7311    8.4182 C.ar    1  UNL1        0.0076
     11 C          60.7278   85.9559    7.9630 C.ar    1  UNL1        0.0355
     12 S          61.8594   86.2620    8.8988 S.2     1  UNL1       -0.0833
     13 C          64.5845   91.5853   12.4735 C.ar    1  UNL1        0.0323
     14 C          65.7733   92.1808   13.1679 C.ar    1  UNL1        0.0067
     15 C          66.6867   93.1111   12.4262 C.ar    1  UNL1        0.0051
     16 C          66.4113   93.4461   10.9903 C.ar    1  UNL1        0.0554
     17 C          65.2225   92.8506   10.2960 C.ar    1  UNL1        0.0051
     18 C          64.3091   91.9203   11.0376 C.ar    1  UNL1        0.0067
     19 C          67.3247   94.3765   10.2486 C.2     1  UNL1        0.2677
     20 O          68.6690   93.8975    9.7865 O.2     1  UNL1       -0.2681
     21 N          66.8939   95.7859    9.9692 N.am    1  UNL1       -0.1934
     22 O          67.8074   96.7163    9.2276 O.3     1  UNL1       -0.2949
     23 H          66.0117   96.1002   10.2726 H       1  UNL1        0.1825
     24 H          68.6291   96.2522    9.0034 H       1  UNL1        0.2414
@<TRIPOS>BOND
     1     2     3    1
     2     3     4   ar
     3     4     1    1
     4     1    13    1
     5    13    14   ar
     6    14    15   ar
     7    15    16   ar
     8    16    19    1
     9    19    20    2
    10    19    21   am
    11    21    22    1
    12    16    17   ar
    13    17    18   ar
    14     4     5   ar
    15     5     6   ar
    16     6     7   ar
    17     7     8    1
    18     8     9   ar
    19     9    10   ar
    20    10    11   ar
    21    11    12   ar
    22     7     3   ar
    23    12     8   ar
    24    18    13   ar
    25    21    23    1
    26    22    24    1
@<TRIPOS>MOLECULE
*****
 24 26 0 0 0
SMALL
GASTEIGER

@<TRIPOS>ATOM
      1 S          64.0370   89.3468   14.2963 S.3     1  UNL1       -0.0487
      2 C          64.7700   86.2817   15.1432 C.3     1  UNL1        0.1340
      3 N          63.9742   86.6981   13.9419 N.ar    1  UNL1       -0.2878
      4 C          63.6373   88.1070   13.5526 C.ar    1  UNL1        0.1973
      5 N          62.8304   88.0584   12.2890 N.ar    1  UNL1       -0.1218
      6 N          62.6686   86.6195   11.8974 N.ar    1  UNL1       -0.1277
      7 C          63.3755   85.7788   12.9190 C.ar    1  UNL1        0.1729
      8 C          63.4676   84.2816   12.9178 C.ar    1  UNL1        0.0654
      9 C          64.2255   83.4457   11.9295 C.ar    1  UNL1        0.0101
     10 C          64.0443   82.0049   12.3055 C.ar    1  UNL1        0.0076
     11 C          63.1743   81.9505   13.5263 C.ar    1  UNL1        0.0355
     12 S          62.8179   83.3575   13.9047 S.2     1  UNL1       -0.0833
     13 C          64.6628   90.4941   13.5599 C.ar    1  UNL1        0.0323
     14 C          65.8864   91.1623   14.1132 C.ar    1  UNL1        0.0067
     15 C          66.5121   92.3096   13.3768 C.ar    1  UNL1        0.0051
     16 C          65.9141   92.7887   12.0873 C.ar    1  UNL1        0.0554
     17 C          64.6905   92.1205   11.5341 C.ar    1  UNL1        0.0051
     18 C          64.0648   90.9732   12.2704 C.ar    1  UNL1        0.0067
     19 C          66.5399   93.9360   11.3510 C.2     1  UNL1        0.2677
     20 O          66.1188   95.3428   11.6573 O.2     1  UNL1       -0.2681
     21 N          67.5866   93.6766   10.3084 N.am    1  UNL1       -0.1934
     22 O          68.2123   94.8240    9.5721 O.3     1  UNL1       -0.2949
     23 H          67.8629   92.7533   10.1073 H       1  UNL1        0.1825
     24 H          67.8306   95.6578    9.8882 H       1  UNL1        0.2414
@<TRIPOS>BOND
     1     2     3    1
     2     3     4   ar
     3     4     1    1
     4     1    13    1
     5    13    14   ar
     6    14    15   ar
     7    15    16   ar
     8    16    19    1
     9    19    20    2
    10    19    21   am
    11    21    22    1
    12    16    17   ar
    13    17    18   ar
    14     4     5   ar
    15     5     6   ar
    16     6     7   ar
    17     7     8    1
    18     8     9   ar
    19     9    10   ar
    20    10    11   ar
    21    11    12   ar
    22     7     3   ar
    23    12     8   ar
    24    18    13   ar
    25    21    23    1
    26    22    24    1
@<TRIPOS>MOLECULE
*****
 24 26 0 0 0
SMALL
GASTEIGER

@<TRIPOS>ATOM
      1 S          62.3231   88.8309   11.6190 S.3     1  UNL1       -0.0487
      2 C          61.5398   85.8798   10.4671 C.3     1  UNL1        0.1340
      3 N          62.4000   86.1594   11.6637 N.ar    1  UNL1       -0.2878
      4 C          62.7600   87.5159   12.1932 C.ar    1  UNL1        0.1973
      5 N          63.6337   87.3264   13.3977 N.ar    1  UNL1       -0.1218
      6 N          63.8137   85.8528   13.6126 N.ar    1  UNL1       -0.1277
      7 C          63.0511   85.1316   12.5409 C.ar    1  UNL1        0.1729
      8 C          62.9564   83.6437   12.3755 C.ar    1  UNL1        0.0654
      9 C          62.3716   82.6819   13.3668 C.ar    1  UNL1        0.0101
     10 C          62.4836   81.3002   12.7938 C.ar    1  UNL1        0.0076
     11 C          63.1378   81.4081   11.4483 C.ar    1  UNL1        0.0355
     12 S          63.4300   82.8565   11.1898 S.2     1  UNL1       -0.0833
     13 C          63.2334   90.0209   11.6924 C.ar    1  UNL1        0.0323
     14 C          63.4665   90.8632   10.4733 C.ar    1  UNL1        0.0067
     15 C          64.3767   92.0531   10.5467 C.ar    1  UNL1        0.0051
     16 C          65.0539   92.4008   11.8392 C.ar    1  UNL1        0.0554
     17 C          64.8209   91.5585   13.0583 C.ar    1  UNL1        0.0051
     18 C          63.9106   90.3685   12.9848 C.ar    1  UNL1        0.0067
     19 C          65.9642   93.5908   11.9126 C.2     1  UNL1        0.2677
     20 O          66.7070   93.8897   13.1810 O.2     1  UNL1       -0.2681
     21 N          66.1317   94.4818   10.7176 N.am    1  UNL1       -0.1934
     22 O          67.0420   95.6718   10.7909 O.3     1  UNL1       -0.2949
     23 H          65.6441   94.2855    9.8851 H       1  UNL1        0.1825
     24 H          67.4407   95.7199   11.6739 H       1  UNL1        0.2414
@<TRIPOS>BOND
     1     2     3    1
     2     3     4   ar
     3     4     1    1
     4     1    13    1
     5    13    14   ar
     6    14    15   ar
     7    15    16   ar
     8    16    19    1
     9    19    20    2
    10    19    21   am
    11    21    22    1
    12    16    17   ar
    13    17    18   ar
    14     4     5   ar
    15     5     6   ar
    16     6     7   ar
    17     7     8    1
    18     8     9   ar
    19     9    10   ar
    20    10    11   ar
    21    11    12   ar
    22     7     3   ar
    23    12     8   ar
    24    18    13   ar
    25    21    23    1
    26    22    24    1
@<TRIPOS>MOLECULE
*****
 24 26 0 0 0
SMALL
GASTEIGER

@<TRIPOS>ATOM
      1 S          61.8243   90.0230   12.4664 S.3     1  UNL1       -0.0487
      2 C          63.2314   91.4747    9.9047 C.3     1  UNL1        0.1340
      3 N          63.7378   91.4931   11.3165 N.ar    1  UNL1       -0.2878
      4 C          63.0911   90.8258   12.4940 C.ar    1  UNL1        0.1973
      5 N          63.9335   91.1024   13.7039 N.ar    1  UNL1       -0.1218
      6 N          65.1009   91.9405   13.2742 N.ar    1  UNL1       -0.1277
      7 C          64.9800   92.1820   11.7987 C.ar    1  UNL1        0.1729
      8 C          65.9337   92.9735   10.9537 C.ar    1  UNL1        0.0654
      9 C          65.8120   94.4296   10.6150 C.ar    1  UNL1        0.0101
     10 C          66.9797   94.8038    9.7511 C.ar    1  UNL1        0.0076
     11 C          67.8231   93.5789    9.5558 C.ar    1  UNL1        0.0355
     12 S          67.1767   92.4477   10.2990 S.2     1  UNL1       -0.0833
     13 C          61.5673   89.0660   11.3402 C.ar    1  UNL1        0.0323
     14 C          62.4687   87.8839   11.1401 C.ar    1  UNL1        0.0067
     15 C          62.2116   86.9269   10.0140 C.ar    1  UNL1        0.0051
     16 C          61.0531   87.1520    9.0881 C.ar    1  UNL1        0.0554
     17 C          60.1517   88.3341    9.2883 C.ar    1  UNL1        0.0051
     18 C          60.4088   89.2911   10.4143 C.ar    1  UNL1        0.0067
     19 C          60.7961   86.1950    7.9620 C.2     1  UNL1        0.2677
     20 O          59.4154   86.0625    7.3907 O.2     1  UNL1       -0.2681
     21 N          61.9196   85.3705    7.4072 N.am    1  UNL1       -0.1934
     22 O          61.6625   84.4134    6.2811 O.3     1  UNL1       -0.2949
     23 H          62.8257   85.4575    7.7822 H       1  UNL1        0.1825
     24 H          60.7257   84.4507    6.0326 H       1  UNL1        0.2414
@<TRIPOS>BOND
     1     2     3    1
     2     3     4   ar
     3     4     1    1
     4     1    13    1
     5    13    14   ar
     6    14    15   ar
     7    15    16   ar
     8    16    19    1
     9    19    20    2
    10    19    21   am
    11    21    22    1
    12    16    17   ar
    13    17    18   ar
    14     4     5   ar
    15     5     6   ar
    16     6     7   ar
    17     7     8    1
    18     8     9   ar
    19     9    10   ar
    20    10    11   ar
    21    11    12   ar
    22     7     3   ar
    23    12     8   ar
    24    18    13   ar
    25    21    23    1
    26    22    24    1
@<TRIPOS>MOLECULE
*****
 24 26 0 0 0
SMALL
GASTEIGER

@<TRIPOS>ATOM
      1 S          62.6809   89.2977   12.5802 S.3     1  UNL1       -0.0487
      2 C          64.7745   89.6831   15.0536 C.3     1  UNL1        0.1340
      3 N          64.7214   90.5138   13.8058 N.ar    1  UNL1       -0.2878
      4 C          63.7591   90.3367   12.6689 C.ar    1  UNL1        0.1973
      5 N          64.0643   91.3810   11.6363 N.ar    1  UNL1       -0.1218
      6 N          65.2153   92.2035   12.1349 N.ar    1  UNL1       -0.1277
      7 C          65.6214   91.6676   13.4758 C.ar    1  UNL1        0.1729
      8 C          66.7324   92.1931   14.3357 C.ar    1  UNL1        0.0654
      9 C          66.5726   92.8899   15.6543 C.ar    1  UNL1        0.0101
     10 C          67.9397   93.2416   16.1615 C.ar    1  UNL1        0.0076
     11 C          68.9445   92.7622   15.1562 C.ar    1  UNL1        0.0355
     12 S          68.1984   92.1142   14.0278 S.2     1  UNL1       -0.0833
     13 C          61.8646   89.1688   11.3283 C.ar    1  UNL1        0.0323
     14 C          62.1467   88.0584   10.3601 C.ar    1  UNL1        0.0067
     15 C          61.3304   87.9295    9.1083 C.ar    1  UNL1        0.0051
     16 C          60.2322   88.9111    8.8247 C.ar    1  UNL1        0.0554
     17 C          59.9501   90.0214    9.7929 C.ar    1  UNL1        0.0051
     18 C          60.7664   90.1503   11.0447 C.ar    1  UNL1        0.0067
     19 C          59.4159   88.7821    7.5728 C.2     1  UNL1        0.2677
     20 O          58.6967   87.4999    7.2751 O.2     1  UNL1       -0.2681
     21 N          59.3189   89.9354    6.6186 N.am    1  UNL1       -0.1934
     22 O          58.5026   89.8065    5.3667 O.3     1  UNL1       -0.2949
     23 H          59.7909   90.7770    6.8140 H       1  UNL1        0.1825
     24 H          58.1077   88.9214    5.3280 H       1  UNL1        0.2414
@<TRIPOS>BOND
     1     2     3    1
     2     3     4   ar
     3     4     1    1
     4     1    13    1
     5    13    14   ar
     6    14    15   ar
     7    15    16   ar
     8    16    19    1
     9    19    20    2
    10    19    21   am
    11    21    22    1
    12    16    17   ar
    13    17    18   ar
    14     4     5   ar
    15     5     6   ar
    16     6     7   ar
    17     7     8    1
    18     8     9   ar
    19     9    10   ar
    20    10    11   ar
    21    11    12   ar
    22     7     3   ar
    23    12     8   ar
    24    18    13   ar
    25    21    23    1
    26    22    24    1
