@<TRIPOS>MOLECULE
*****
 34 37 0 0 0
SMALL
GASTEIGER

@<TRIPOS>ATOM
      1 N          63.7594   84.5931   14.3966 N.pl3   1  UNL1       -0.2777
      2 C          63.8856   83.3279   15.1924 C.3     1  UNL1        0.0936
      3 C          63.9771   82.0058   14.4896 C.3     1  UNL1        0.0221
      4 C          63.9424   81.9490   12.9911 C.3     1  UNL1        0.0126
      5 C          63.8162   83.2143   12.1953 C.3     1  UNL1        0.0963
      6 C          63.7246   84.5363   12.8981 C.3     1  UNL1        0.1026
      7 C          62.5594   87.3700   18.6214 C.3     1  UNL1        0.0523
      8 C          63.0678   87.3036   17.2117 C.ar    1  UNL1        0.0650
      9 C          63.4848   88.5591   16.5049 C.ar    1  UNL1        0.0492
     10 C          63.9933   88.4927   15.0953 C.ar    1  UNL1        0.1358
     11 N          64.0848   87.1707   14.3925 N.ar    1  UNL1       -0.1987
     12 C          63.6679   85.9151   15.0994 C.ar    1  UNL1        0.2210
     13 N          63.1594   85.9816   16.5090 N.ar    1  UNL1       -0.2179
     14 N          64.4102   89.7483   14.3884 N.pl3   1  UNL1       -0.2903
     15 C          63.7521   90.1360   13.0974 C.3     1  UNL1        0.1095
     16 C          64.1690   91.3916   12.3905 C.3     1  UNL1        0.0939
     17 N          65.2441   92.2595   12.9746 N.3     1  UNL1       -0.2686
     18 C          65.6610   93.5151   12.2678 C.3     1  UNL1        0.0897
     19 C          65.9022   91.8718   14.2656 C.3     1  UNL1        0.0939
     20 C          65.4852   90.6162   14.9725 C.3     1  UNL1        0.1095
     21 C          63.7814   83.1575   10.6968 C.2     1  UNL1        0.2237
     22 O          64.3214   81.9562    9.9791 O.2     1  UNL1       -0.2751
     23 N          63.2066   84.3021    9.9160 N.am    1  UNL1       -0.3040
     24 H          62.8522   85.0905   10.3871 H       1  UNL1        0.1494
     25 C          63.1719   84.2453    8.4175 C.3     1  UNL1        0.0941
     26 C          62.3770   85.2573    7.6468 C.3     1  UNL1        0.0476
     27 C          61.7407   86.4129    8.3608 C.ar    1  UNL1       -0.0204
     28 C          62.5496   87.2441    9.3120 C.ar    1  UNL1       -0.0035
     29 C          61.9133   88.3997   10.0259 C.ar    1  UNL1        0.0100
     30 C          60.4682   88.7241    9.7887 C.ar    1  UNL1        0.0684
     31 C          59.6593   87.8929    8.8375 C.ar    1  UNL1        0.0100
     32 C          60.2956   86.7373    8.1236 C.ar    1  UNL1       -0.0035
     33 C          59.8319   89.8797   10.5027 C.1     1  UNL1        0.1004
     34 N          59.1956   91.0353   11.2166 N.1     1  UNL1       -0.1908
@<TRIPOS>BOND
     1     7     8    1
     2     8     9   ar
     3     9    10   ar
     4    10    14    1
     5    14    15    1
     6    15    16    1
     7    16    17    1
     8    17    18    1
     9    17    19    1
    10    19    20    1
    11    10    11   ar
    12    11    12   ar
    13    12     1    1
    14     1     2    1
    15     2     3    1
    16     3     4    1
    17     4     5    1
    18     5    21    1
    19    21    22    2
    20    21    23   am
    21    23    25    1
    22    25    26    1
    23    26    27    1
    24    27    28   ar
    25    28    29   ar
    26    29    30   ar
    27    30    33    1
    28    33    34    3
    29    30    31   ar
    30    31    32   ar
    31     5     6    1
    32    12    13   ar
    33    13     8   ar
    34    20    14    1
    35     6     1    1
    36    32    27   ar
    37    23    24    1
@<TRIPOS>MOLECULE
*****
 34 37 0 0 0
SMALL
GASTEIGER

@<TRIPOS>ATOM
      1 N          62.2050   86.9423   10.0354 N.pl3   1  UNL1       -0.2777
      2 C          61.9389   86.8153    8.5647 C.3     1  UNL1        0.0936
      3 C          62.2105   85.5178    7.8627 C.3     1  UNL1        0.0221
      4 C          62.7483   84.3474    8.6314 C.3     1  UNL1        0.0126
      5 C          63.0144   84.4744   10.1022 C.3     1  UNL1        0.0963
      6 C          62.7428   85.7719   10.8041 C.3     1  UNL1        0.1026
      7 C          58.8726   90.6382   11.5305 C.3     1  UNL1        0.0523
      8 C          60.2672   90.0877   11.4850 C.ar    1  UNL1        0.0650
      9 C          61.3901   90.8347   12.1415 C.ar    1  UNL1        0.0492
     10 C          62.7847   90.2842   12.0959 C.ar    1  UNL1        0.1358
     11 N          63.0564   88.9868   11.3939 N.ar    1  UNL1       -0.1987
     12 C          61.9334   88.2398   10.7375 C.ar    1  UNL1        0.2210
     13 N          60.5388   88.7903   10.7830 N.ar    1  UNL1       -0.2179
     14 N          63.9077   91.0312   12.7524 N.pl3   1  UNL1       -0.2903
     15 C          64.2047   90.8129   14.2064 C.3     1  UNL1        0.1095
     16 C          65.3276   91.5598   14.8630 C.3     1  UNL1        0.0939
     17 N          66.1536   92.5252   14.0655 N.3     1  UNL1       -0.2686
     18 C          67.2765   93.2721   14.7220 C.3     1  UNL1        0.0897
     19 C          65.8566   92.7435   12.6115 C.3     1  UNL1        0.0939
     20 C          64.7336   91.9965   11.9550 C.3     1  UNL1        0.1095
     21 C          63.5521   83.3040   10.8709 C.2     1  UNL1        0.2237
     22 O          65.0168   82.9840   10.8225 O.2     1  UNL1       -0.2751
     23 N          62.6252   82.4536   11.6880 N.am    1  UNL1       -0.3040
     24 H          61.6639   82.6637   11.7197 H       1  UNL1        0.1494
     25 C          63.1629   81.2832   12.4567 C.3     1  UNL1        0.0941
     26 C          63.7351   81.4858   13.8284 C.3     1  UNL1        0.0476
     27 C          63.6242   82.8239   14.4972 C.ar    1  UNL1       -0.0204
     28 C          64.7294   83.8278   14.3538 C.ar    1  UNL1       -0.0035
     29 C          64.6185   85.1659   15.0226 C.ar    1  UNL1        0.0100
     30 C          63.4025   85.5000   15.8348 C.ar    1  UNL1        0.0684
     31 C          62.2973   84.4960   15.9781 C.ar    1  UNL1        0.0100
     32 C          62.4082   83.1579   15.3093 C.ar    1  UNL1       -0.0035
     33 C          63.2916   86.8381   16.5035 C.1     1  UNL1        0.1004
     34 N          63.1808   88.1761   17.1723 N.1     1  UNL1       -0.1908
@<TRIPOS>BOND
     1     7     8    1
     2     8     9   ar
     3     9    10   ar
     4    10    14    1
     5    14    15    1
     6    15    16    1
     7    16    17    1
     8    17    18    1
     9    17    19    1
    10    19    20    1
    11    10    11   ar
    12    11    12   ar
    13    12     1    1
    14     1     2    1
    15     2     3    1
    16     3     4    1
    17     4     5    1
    18     5    21    1
    19    21    22    2
    20    21    23   am
    21    23    25    1
    22    25    26    1
    23    26    27    1
    24    27    28   ar
    25    28    29   ar
    26    29    30   ar
    27    30    33    1
    28    33    34    3
    29    30    31   ar
    30    31    32   ar
    31     5     6    1
    32    12    13   ar
    33    13     8   ar
    34    20    14    1
    35     6     1    1
    36    32    27   ar
    37    23    24    1
@<TRIPOS>MOLECULE
*****
 34 37 0 0 0
SMALL
GASTEIGER

@<TRIPOS>ATOM
      1 N          62.2374   88.6484   10.8570 N.pl3   1  UNL1       -0.2777
      2 C          62.3595   87.1997   11.2261 C.3     1  UNL1        0.0936
      3 C          61.5745   86.1656   10.4747 C.3     1  UNL1        0.0221
      4 C          60.6676   86.5802    9.3543 C.3     1  UNL1        0.0126
      5 C          60.5456   88.0291    8.9852 C.3     1  UNL1        0.0963
      6 C          61.3305   89.0631    9.7366 C.3     1  UNL1        0.1026
      7 C          63.7781   90.7348   15.3596 C.3     1  UNL1        0.0523
      8 C          63.7927   90.7257   13.8597 C.ar    1  UNL1        0.0650
      9 C          64.5922   91.7506   13.1112 C.ar    1  UNL1        0.0492
     10 C          64.6068   91.7415   11.6113 C.ar    1  UNL1        0.1358
     11 N          63.8219   90.7074   10.8599 N.ar    1  UNL1       -0.1987
     12 C          63.0224   89.6825   11.6084 C.ar    1  UNL1        0.2210
     13 N          63.0078   89.6917   13.1083 N.ar    1  UNL1       -0.2179
     14 N          65.4064   92.7664   10.8628 N.pl3   1  UNL1       -0.2903
     15 C          64.9670   94.2006   10.8544 C.3     1  UNL1        0.1095
     16 C          65.7665   95.2256   10.1059 C.3     1  UNL1        0.0939
     17 N          67.0054   94.8164    9.3659 N.3     1  UNL1       -0.2686
     18 C          67.8049   95.8413    8.6174 C.3     1  UNL1        0.0897
     19 C          67.4448   93.3822    9.3743 C.3     1  UNL1        0.0939
     20 C          66.6453   92.3572   10.1228 C.3     1  UNL1        0.1095
     21 C          59.6386   88.4437    7.8647 C.2     1  UNL1        0.2237
     22 O          58.4363   87.6131    7.5265 O.2     1  UNL1       -0.2751
     23 N          59.9340   89.6891    7.0825 N.am    1  UNL1       -0.3040
     24 H          60.7231   90.2343    7.3045 H       1  UNL1        0.1494
     25 C          59.0270   90.1038    5.9620 C.3     1  UNL1        0.0941
     26 C          59.0852   91.5048    5.4294 C.3     1  UNL1        0.0476
     27 C          60.1110   91.8734    4.3989 C.ar    1  UNL1       -0.0204
     28 C          61.4588   91.2153    4.4133 C.ar    1  UNL1       -0.0035
     29 C          62.4845   91.5839    3.3828 C.ar    1  UNL1        0.0100
     30 C          62.1625   92.6106    2.3378 C.ar    1  UNL1        0.0684
     31 C          60.8147   93.2688    2.3234 C.ar    1  UNL1        0.0100
     32 C          59.7889   92.9002    3.3539 C.ar    1  UNL1       -0.0035
     33 C          63.1882   92.9792    1.3073 C.1     1  UNL1        0.1004
     34 N          64.2140   93.3478    0.2768 N.1     1  UNL1       -0.1908
@<TRIPOS>BOND
     1     7     8    1
     2     8     9   ar
     3     9    10   ar
     4    10    14    1
     5    14    15    1
     6    15    16    1
     7    16    17    1
     8    17    18    1
     9    17    19    1
    10    19    20    1
    11    10    11   ar
    12    11    12   ar
    13    12     1    1
    14     1     2    1
    15     2     3    1
    16     3     4    1
    17     4     5    1
    18     5    21    1
    19    21    22    2
    20    21    23   am
    21    23    25    1
    22    25    26    1
    23    26    27    1
    24    27    28   ar
    25    28    29   ar
    26    29    30   ar
    27    30    33    1
    28    33    34    3
    29    30    31   ar
    30    31    32   ar
    31     5     6    1
    32    12    13   ar
    33    13     8   ar
    34    20    14    1
    35     6     1    1
    36    32    27   ar
    37    23    24    1
@<TRIPOS>MOLECULE
*****
 34 37 0 0 0
SMALL
GASTEIGER

@<TRIPOS>ATOM
      1 N          59.7268   88.7919    7.4111 N.pl3   1  UNL1       -0.2777
      2 C          59.5117   87.3305    7.1504 C.3     1  UNL1        0.0936
      3 C          59.8774   86.3201    8.1970 C.3     1  UNL1        0.0221
      4 C          60.4582   86.7712    9.5044 C.3     1  UNL1        0.0126
      5 C          60.6733   88.2327    9.7651 C.3     1  UNL1        0.0963
      6 C          60.3076   89.2430    8.7185 C.3     1  UNL1        0.1026
      7 C          56.1382   91.6673    4.9916 C.3     1  UNL1        0.0523
      8 C          57.5667   91.2400    5.1547 C.ar    1  UNL1        0.0650
      9 C          58.6295   91.8230    4.2713 C.ar    1  UNL1        0.0492
     10 C          60.0581   91.3956    4.4344 C.ar    1  UNL1        0.1358
     11 N          60.4238   90.3853    5.4810 N.ar    1  UNL1       -0.1987
     12 C          59.3610   89.8023    6.3644 C.ar    1  UNL1        0.2210
     13 N          57.9325   90.2296    6.2013 N.ar    1  UNL1       -0.2179
     14 N          61.1209   91.9787    3.5509 N.pl3   1  UNL1       -0.2903
     15 C          60.8036   93.1495    2.6685 C.3     1  UNL1        0.1095
     16 C          61.8663   93.7325    1.7850 C.3     1  UNL1        0.0939
     17 N          63.2464   93.1448    1.7839 N.3     1  UNL1       -0.2686
     18 C          64.3092   93.7279    0.9004 C.3     1  UNL1        0.0897
     19 C          63.5637   91.9740    2.6663 C.3     1  UNL1        0.0939
     20 C          62.5009   91.3910    3.5498 C.3     1  UNL1        0.1095
     21 C          61.2541   88.6838   11.0724 C.2     1  UNL1        0.2237
     22 O          60.3938   89.4074   12.0655 O.2     1  UNL1       -0.2751
     23 N          62.6953   88.4112   11.3868 N.am    1  UNL1       -0.3040
     24 H          63.2600   87.9362   10.7350 H       1  UNL1        0.1494
     25 C          63.2761   88.8623   12.6941 C.3     1  UNL1        0.0941
     26 C          63.2601   90.3169   13.0599 C.3     1  UNL1        0.0476
     27 C          64.2011   91.2703   12.3849 C.ar    1  UNL1       -0.0204
     28 C          65.3563   91.8493   13.1465 C.ar    1  UNL1       -0.0035
     29 C          66.2973   92.8027   12.4716 C.ar    1  UNL1        0.0100
     30 C          66.0830   93.1772   11.0350 C.ar    1  UNL1        0.0684
     31 C          64.9277   92.5982   10.2734 C.ar    1  UNL1        0.0100
     32 C          63.9867   91.6448   10.9483 C.ar    1  UNL1       -0.0035
     33 C          67.0239   94.1306   10.3601 C.1     1  UNL1        0.1004
     34 N          67.9649   95.0841    9.6851 N.1     1  UNL1       -0.1908
@<TRIPOS>BOND
     1     7     8    1
     2     8     9   ar
     3     9    10   ar
     4    10    14    1
     5    14    15    1
     6    15    16    1
     7    16    17    1
     8    17    18    1
     9    17    19    1
    10    19    20    1
    11    10    11   ar
    12    11    12   ar
    13    12     1    1
    14     1     2    1
    15     2     3    1
    16     3     4    1
    17     4     5    1
    18     5    21    1
    19    21    22    2
    20    21    23   am
    21    23    25    1
    22    25    26    1
    23    26    27    1
    24    27    28   ar
    25    28    29   ar
    26    29    30   ar
    27    30    33    1
    28    33    34    3
    29    30    31   ar
    30    31    32   ar
    31     5     6    1
    32    12    13   ar
    33    13     8   ar
    34    20    14    1
    35     6     1    1
    36    32    27   ar
    37    23    24    1
@<TRIPOS>MOLECULE
*****
 34 37 0 0 0
SMALL
GASTEIGER

@<TRIPOS>ATOM
      1 N          64.8587   90.7597   15.2745 N.pl3   1  UNL1       -0.2777
      2 C          63.7920   90.9945   16.3026 C.3     1  UNL1        0.0936
      3 C          62.8706   89.8781   16.6958 C.3     1  UNL1        0.0221
      4 C          63.0160   88.5268   16.0610 C.3     1  UNL1        0.0126
      5 C          64.0827   88.2921   15.0328 C.3     1  UNL1        0.0963
      6 C          65.0041   89.4085   14.6396 C.3     1  UNL1        0.1026
      7 C          68.7820   93.9699   16.4159 C.3     1  UNL1        0.0523
      8 C          67.7418   93.4812   15.4520 C.ar    1  UNL1        0.0650
      9 C          67.6229   94.1090   14.0949 C.ar    1  UNL1        0.0492
     10 C          66.5827   93.6204   13.1310 C.ar    1  UNL1        0.1358
     11 N          65.6613   92.5040   13.5242 N.ar    1  UNL1       -0.1987
     12 C          65.7801   91.8762   14.8812 C.ar    1  UNL1        0.2210
     13 N          66.8204   92.3648   15.8451 N.ar    1  UNL1       -0.2179
     14 N          66.4638   94.2482   11.7738 N.pl3   1  UNL1       -0.2903
     15 C          65.9615   95.6552   11.6398 C.3     1  UNL1        0.1095
     16 C          65.8426   96.2831   10.2827 C.3     1  UNL1        0.0939
     17 N          66.2261   95.5039    9.0596 N.3     1  UNL1       -0.2686
     18 C          66.1073   96.1317    7.7026 C.3     1  UNL1        0.0897
     19 C          66.7284   94.0969    9.1937 C.3     1  UNL1        0.0939
     20 C          66.8473   93.4690   10.5508 C.3     1  UNL1        0.1095
     21 C          64.2281   86.9409   14.3979 C.2     1  UNL1        0.2237
     22 O          65.2172   85.9564   14.9477 O.2     1  UNL1       -0.2751
     23 N          63.3842   86.5742   13.2132 N.am    1  UNL1       -0.3040
     24 H          62.7350   87.2204   12.8523 H       1  UNL1        0.1494
     25 C          63.5296   85.2230   12.5783 C.3     1  UNL1        0.0941
     26 C          62.4613   84.7067   11.6606 C.3     1  UNL1        0.0476
     27 C          61.8058   85.6310   10.6777 C.ar    1  UNL1       -0.0204
     28 C          62.0354   85.4469    9.2069 C.ar    1  UNL1       -0.0035
     29 C          61.3799   86.3712    8.2240 C.ar    1  UNL1        0.0100
     30 C          60.4949   87.4796    8.7120 C.ar    1  UNL1        0.0684
     31 C          60.2653   87.6636   10.1828 C.ar    1  UNL1        0.0100
     32 C          60.9208   86.7393   11.1657 C.ar    1  UNL1       -0.0035
     33 C          59.8394   88.4038    7.7291 C.1     1  UNL1        0.1004
     34 N          59.1839   89.3281    6.7463 N.1     1  UNL1       -0.1908
@<TRIPOS>BOND
     1     7     8    1
     2     8     9   ar
     3     9    10   ar
     4    10    14    1
     5    14    15    1
     6    15    16    1
     7    16    17    1
     8    17    18    1
     9    17    19    1
    10    19    20    1
    11    10    11   ar
    12    11    12   ar
    13    12     1    1
    14     1     2    1
    15     2     3    1
    16     3     4    1
    17     4     5    1
    18     5    21    1
    19    21    22    2
    20    21    23   am
    21    23    25    1
    22    25    26    1
    23    26    27    1
    24    27    28   ar
    25    28    29   ar
    26    29    30   ar
    27    30    33    1
    28    33    34    3
    29    30    31   ar
    30    31    32   ar
    31     5     6    1
    32    12    13   ar
    33    13     8   ar
    34    20    14    1
    35     6     1    1
    36    32    27   ar
    37    23    24    1
@<TRIPOS>MOLECULE
*****
 34 37 0 0 0
SMALL
GASTEIGER

@<TRIPOS>ATOM
      1 N          62.5804   87.7105   11.6524 N.pl3   1  UNL1       -0.2777
      2 C          63.1332   89.0649   11.9839 C.3     1  UNL1        0.0936
      3 C          62.7338   90.2584   11.1677 C.3     1  UNL1        0.0221
      4 C          61.7815   90.0974   10.0200 C.3     1  UNL1        0.0126
      5 C          61.2286   88.7429    9.6885 C.3     1  UNL1        0.0963
      6 C          61.6281   87.5495   10.5047 C.3     1  UNL1        0.1026
      7 C          64.4253   85.6946   16.0719 C.3     1  UNL1        0.0523
      8 C          63.9023   85.5091   14.6783 C.ar    1  UNL1        0.0650
      9 C          63.7786   84.1302   14.1010 C.ar    1  UNL1        0.0492
     10 C          63.2556   83.9448   12.7074 C.ar    1  UNL1        0.1358
     11 N          62.8561   85.1381   11.8912 N.ar    1  UNL1       -0.1987
     12 C          62.9798   86.5170   12.4686 C.ar    1  UNL1        0.2210
     13 N          63.5028   86.7025   13.8621 N.ar    1  UNL1       -0.2179
     14 N          63.1319   82.5658   12.1301 N.pl3   1  UNL1       -0.2903
     15 C          62.6283   81.4385   12.9819 C.3     1  UNL1        0.1095
     16 C          62.5047   80.0596   12.4046 C.3     1  UNL1        0.0939
     17 N          62.8846   79.8079   10.9755 N.3     1  UNL1       -0.2686
     18 C          62.7610   78.4290   10.3982 C.3     1  UNL1        0.0897
     19 C          63.3882   80.9352   10.1237 C.3     1  UNL1        0.0939
     20 C          63.5118   82.3142   10.7010 C.3     1  UNL1        0.1095
     21 C          60.2764   88.5819    8.5408 C.2     1  UNL1        0.2237
     22 O          59.5817   87.2708    8.3208 O.2     1  UNL1       -0.2751
     23 N          60.0187   89.7321    7.6130 N.am    1  UNL1       -0.3040
     24 H          60.4747   90.5927    7.7573 H       1  UNL1        0.1494
     25 C          59.0664   89.5711    6.4652 C.3     1  UNL1        0.0941
     26 C          58.6741   90.7630    5.6434 C.3     1  UNL1        0.0476
     27 C          59.6518   91.3618    4.6762 C.ar    1  UNL1       -0.0204
     28 C          59.1982   92.4096    3.7034 C.ar    1  UNL1       -0.0035
     29 C          60.1759   93.0085    2.7362 C.ar    1  UNL1        0.0100
     30 C          61.6071   92.5595    2.7418 C.ar    1  UNL1        0.0684
     31 C          62.0606   91.5118    3.7146 C.ar    1  UNL1        0.0100
     32 C          61.0830   90.9129    4.6818 C.ar    1  UNL1       -0.0035
     33 C          62.5848   93.1584    1.7746 C.1     1  UNL1        0.1004
     34 N          63.5625   93.7572    0.8074 N.1     1  UNL1       -0.1908
@<TRIPOS>BOND
     1     7     8    1
     2     8     9   ar
     3     9    10   ar
     4    10    14    1
     5    14    15    1
     6    15    16    1
     7    16    17    1
     8    17    18    1
     9    17    19    1
    10    19    20    1
    11    10    11   ar
    12    11    12   ar
    13    12     1    1
    14     1     2    1
    15     2     3    1
    16     3     4    1
    17     4     5    1
    18     5    21    1
    19    21    22    2
    20    21    23   am
    21    23    25    1
    22    25    26    1
    23    26    27    1
    24    27    28   ar
    25    28    29   ar
    26    29    30   ar
    27    30    33    1
    28    33    34    3
    29    30    31   ar
    30    31    32   ar
    31     5     6    1
    32    12    13   ar
    33    13     8   ar
    34    20    14    1
    35     6     1    1
    36    32    27   ar
    37    23    24    1
@<TRIPOS>MOLECULE
*****
 34 37 0 0 0
SMALL
GASTEIGER

@<TRIPOS>ATOM
      1 N          59.7865   89.2074    7.4659 N.pl3   1  UNL1       -0.2777
      2 C          59.3100   87.7863    7.5240 C.3     1  UNL1        0.0936
      3 C          59.7574   86.8903    8.6407 C.3     1  UNL1        0.0221
      4 C          60.6815   87.4154    9.6992 C.3     1  UNL1        0.0126
      5 C          61.1580   88.8365    9.6410 C.3     1  UNL1        0.0963
      6 C          60.7105   89.7325    8.5244 C.3     1  UNL1        0.1026
      7 C          55.9693   91.5409    4.8232 C.3     1  UNL1        0.0523
      8 C          57.4304   91.2702    5.0279 C.ar    1  UNL1        0.0650
      9 C          58.4440   91.8955    4.1160 C.ar    1  UNL1        0.0492
     10 C          59.9051   91.6247    4.3207 C.ar    1  UNL1        0.1358
     11 N          60.3526   90.7287    5.4373 N.ar    1  UNL1       -0.1987
     12 C          59.3390   90.1035    6.3492 C.ar    1  UNL1        0.2210
     13 N          57.8779   90.3742    6.1445 N.ar    1  UNL1       -0.2179
     14 N          60.9187   92.2501    3.4087 N.pl3   1  UNL1       -0.2903
     15 C          60.5250   93.3940    2.5219 C.3     1  UNL1        0.1095
     16 C          61.5385   94.0193    1.6099 C.3     1  UNL1        0.0939
     17 N          62.9459   93.5007    1.5848 N.3     1  UNL1       -0.2686
     18 C          63.9594   94.1260    0.6728 C.3     1  UNL1        0.0897
     19 C          63.3396   92.3568    2.4716 C.3     1  UNL1        0.0939
     20 C          62.3260   91.7315    3.3836 C.3     1  UNL1        0.1095
     21 C          62.0821   89.3616   10.6995 C.2     1  UNL1        0.2237
     22 O          63.3520   90.0575   10.3085 O.2     1  UNL1       -0.2751
     23 N          61.7361   89.1908   12.1491 N.am    1  UNL1       -0.3040
     24 H          60.9026   88.7340   12.4058 H       1  UNL1        0.1494
     25 C          62.6601   89.7159   13.2076 C.3     1  UNL1        0.0941
     26 C          63.9096   88.9617   13.5538 C.3     1  UNL1        0.0476
     27 C          63.8658   87.4709   13.7141 C.ar    1  UNL1       -0.0204
     28 C          64.4500   86.8308   14.9384 C.ar    1  UNL1       -0.0035
     29 C          64.4062   85.3400   15.0987 C.ar    1  UNL1        0.0100
     30 C          63.7781   84.4894   14.0348 C.ar    1  UNL1        0.0684
     31 C          63.1938   85.1296   12.8106 C.ar    1  UNL1        0.0100
     32 C          63.2377   86.6203   12.6503 C.ar    1  UNL1       -0.0035
     33 C          63.7342   82.9986   14.1952 C.1     1  UNL1        0.1004
     34 N          63.6904   81.5079   14.3555 N.1     1  UNL1       -0.1908
@<TRIPOS>BOND
     1     7     8    1
     2     8     9   ar
     3     9    10   ar
     4    10    14    1
     5    14    15    1
     6    15    16    1
     7    16    17    1
     8    17    18    1
     9    17    19    1
    10    19    20    1
    11    10    11   ar
    12    11    12   ar
    13    12     1    1
    14     1     2    1
    15     2     3    1
    16     3     4    1
    17     4     5    1
    18     5    21    1
    19    21    22    2
    20    21    23   am
    21    23    25    1
    22    25    26    1
    23    26    27    1
    24    27    28   ar
    25    28    29   ar
    26    29    30   ar
    27    30    33    1
    28    33    34    3
    29    30    31   ar
    30    31    32   ar
    31     5     6    1
    32    12    13   ar
    33    13     8   ar
    34    20    14    1
    35     6     1    1
    36    32    27   ar
    37    23    24    1
@<TRIPOS>MOLECULE
*****
 34 37 0 0 0
SMALL
GASTEIGER

@<TRIPOS>ATOM
      1 N          63.3341   85.8949   13.9139 N.pl3   1  UNL1       -0.2777
      2 C          63.4327   84.8554   14.9907 C.3     1  UNL1        0.0936
      3 C          63.6482   85.2701   16.4161 C.3     1  UNL1        0.0221
      4 C          63.7651   86.7244   16.7646 C.3     1  UNL1        0.0126
      5 C          63.6665   87.7639   15.6877 C.3     1  UNL1        0.0963
      6 C          63.4510   87.3492   14.2624 C.3     1  UNL1        0.1026
      7 C          64.1610   82.5467   10.0273 C.3     1  UNL1        0.0523
      8 C          63.5320   83.8061   10.5453 C.ar    1  UNL1        0.0650
      9 C          62.6875   84.6508    9.6379 C.ar    1  UNL1        0.0492
     10 C          62.0585   85.9102   10.1559 C.ar    1  UNL1        0.1358
     11 N          62.2740   86.3249   11.5812 N.ar    1  UNL1       -0.1987
     12 C          63.1185   85.4802   12.4885 C.ar    1  UNL1        0.2210
     13 N          63.7475   84.2208   11.9705 N.ar    1  UNL1       -0.2179
     14 N          61.2140   86.7549    9.2485 N.pl3   1  UNL1       -0.2903
     15 C          61.1328   88.2371    9.4640 C.3     1  UNL1        0.1095
     16 C          60.2884   89.0818    8.5567 C.3     1  UNL1        0.0939
     17 N          59.5250   88.4443    7.4337 N.3     1  UNL1       -0.2686
     18 C          58.6806   89.2890    6.5263 C.3     1  UNL1        0.0897
     19 C          59.6062   86.9621    7.2181 C.3     1  UNL1        0.0939
     20 C          60.4507   86.1174    8.1256 C.3     1  UNL1        0.1095
     21 C          63.7834   89.2182   16.0361 C.2     1  UNL1        0.2237
     22 O          63.1187   89.7492   17.2715 O.2     1  UNL1       -0.2751
     23 N          64.5652   90.1415   15.1492 N.am    1  UNL1       -0.3040
     24 H          65.0015   89.7929   14.3384 H       1  UNL1        0.1494
     25 C          64.6821   91.5957   15.4977 C.3     1  UNL1        0.0941
     26 C          65.9425   92.3441   15.1798 C.3     1  UNL1        0.0476
     27 C          66.5132   92.2974   13.7934 C.ar    1  UNL1       -0.0204
     28 C          67.8942   91.7569   13.5686 C.ar    1  UNL1       -0.0035
     29 C          68.4649   91.7101   12.1822 C.ar    1  UNL1        0.0100
     30 C          67.6545   92.2038   11.0206 C.ar    1  UNL1        0.0684
     31 C          66.2735   92.7443   11.2453 C.ar    1  UNL1        0.0100
     32 C          65.7028   92.7911   12.6317 C.ar    1  UNL1       -0.0035
     33 C          68.2252   92.1571    9.6342 C.1     1  UNL1        0.1004
     34 N          68.7959   92.1103    8.2477 N.1     1  UNL1       -0.1908
@<TRIPOS>BOND
     1     7     8    1
     2     8     9   ar
     3     9    10   ar
     4    10    14    1
     5    14    15    1
     6    15    16    1
     7    16    17    1
     8    17    18    1
     9    17    19    1
    10    19    20    1
    11    10    11   ar
    12    11    12   ar
    13    12     1    1
    14     1     2    1
    15     2     3    1
    16     3     4    1
    17     4     5    1
    18     5    21    1
    19    21    22    2
    20    21    23   am
    21    23    25    1
    22    25    26    1
    23    26    27    1
    24    27    28   ar
    25    28    29   ar
    26    29    30   ar
    27    30    33    1
    28    33    34    3
    29    30    31   ar
    30    31    32   ar
    31     5     6    1
    32    12    13   ar
    33    13     8   ar
    34    20    14    1
    35     6     1    1
    36    32    27   ar
    37    23    24    1
@<TRIPOS>MOLECULE
*****
 34 37 0 0 0
SMALL
GASTEIGER

@<TRIPOS>ATOM
      1 N          62.5941   86.1055    9.8791 N.pl3   1  UNL1       -0.2777
      2 C          62.7564   85.3198    8.6117 C.3     1  UNL1        0.0936
      3 C          63.0978   83.8604    8.6725 C.3     1  UNL1        0.0221
      4 C          63.2768   83.1867   10.0007 C.3     1  UNL1        0.0126
      5 C          63.1144   83.9725   11.2681 C.3     1  UNL1        0.0963
      6 C          62.7731   85.4318   11.2073 C.3     1  UNL1        0.1026
      7 C          59.4692   89.9328    8.2707 C.3     1  UNL1        0.0523
      8 C          60.6902   89.4785    9.0142 C.ar    1  UNL1        0.0650
      9 C          61.5699   90.4836    9.6968 C.ar    1  UNL1        0.0492
     10 C          62.7909   90.0293   10.4402 C.ar    1  UNL1        0.1358
     11 N          63.1323   88.5700   10.5010 N.ar    1  UNL1       -0.1987
     12 C          62.2527   87.5649    9.8184 C.ar    1  UNL1        0.2210
     13 N          61.0317   88.0192    9.0749 N.ar    1  UNL1       -0.2179
     14 N          63.6706   91.0344   11.1229 N.pl3   1  UNL1       -0.2903
     15 C          64.3616   92.0953   10.3185 C.3     1  UNL1        0.1095
     16 C          65.2412   93.1004   11.0011 C.3     1  UNL1        0.0939
     17 N          65.4298   93.0447   12.4882 N.3     1  UNL1       -0.2686
     18 C          66.3094   94.0498   13.1708 C.3     1  UNL1        0.0897
     19 C          64.7388   91.9839   13.2926 C.3     1  UNL1        0.0939
     20 C          63.8591   90.9787   12.6100 C.3     1  UNL1        0.1095
     21 C          63.2934   83.2988   12.5963 C.2     1  UNL1        0.2237
     22 O          64.1751   82.0908   12.7118 O.2     1  UNL1       -0.2751
     23 N          62.5907   83.8331   13.8091 N.am    1  UNL1       -0.3040
     24 H          62.0120   84.6260   13.7333 H       1  UNL1        0.1494
     25 C          62.7697   83.1595   15.1373 C.3     1  UNL1        0.0941
     26 C          63.4730   83.8749   16.2524 C.3     1  UNL1        0.0476
     27 C          63.4524   85.3735   16.3127 C.ar    1  UNL1       -0.0204
     28 C          64.1557   86.1763   15.2587 C.ar    1  UNL1       -0.0035
     29 C          64.1351   87.6749   15.3191 C.ar    1  UNL1        0.0100
     30 C          63.4113   88.3708   16.4335 C.ar    1  UNL1        0.0684
     31 C          62.7081   87.5680   17.4875 C.ar    1  UNL1        0.0100
     32 C          62.7286   86.0694   17.4271 C.ar    1  UNL1       -0.0035
     33 C          63.3907   89.8694   16.4938 C.1     1  UNL1        0.1004
     34 N          63.3702   91.3681   16.5542 N.1     1  UNL1       -0.1908
@<TRIPOS>BOND
     1     7     8    1
     2     8     9   ar
     3     9    10   ar
     4    10    14    1
     5    14    15    1
     6    15    16    1
     7    16    17    1
     8    17    18    1
     9    17    19    1
    10    19    20    1
    11    10    11   ar
    12    11    12   ar
    13    12     1    1
    14     1     2    1
    15     2     3    1
    16     3     4    1
    17     4     5    1
    18     5    21    1
    19    21    22    2
    20    21    23   am
    21    23    25    1
    22    25    26    1
    23    26    27    1
    24    27    28   ar
    25    28    29   ar
    26    29    30   ar
    27    30    33    1
    28    33    34    3
    29    30    31   ar
    30    31    32   ar
    31     5     6    1
    32    12    13   ar
    33    13     8   ar
    34    20    14    1
    35     6     1    1
    36    32    27   ar
    37    23    24    1
