@<TRIPOS>MOLECULE
*****
 54 57 0 0 0
SMALL
GASTEIGER

@<TRIPOS>ATOM
      1 C          62.2980   86.9570   11.4776 C.3     1  UNL1        0.0760
      2 C          62.6961   89.4971   11.8511 C.2     1  UNL1        0.2404
      3 O          61.6370   89.5069   12.9133 O.2     1  UNL1       -0.2733
      4 N          63.0266   88.2222   11.1332 N.am    1  UNL1       -0.3043
      5 H          63.7217   88.2158   10.4360 H       1  UNL1        0.1494
      6 C          63.4246   90.7623   11.5067 C.3     1  UNL1        0.1511
      7 N          64.5398   91.2482   12.3844 N.am    1  UNL1       -0.2824
      8 C          64.3208   91.3997   13.8606 C.2     1  UNL1        0.3046
      9 O          62.9866   91.0652   14.4591 O.2     1  UNL1       -0.2526
     10 N          65.4359   91.8855   14.7383 N.am    1  UNL1       -0.2567
     11 C          65.2169   92.0370   16.2145 C.3     1  UNL1        0.1168
     12 H          65.4155   91.4677   11.9916 H       1  UNL1        0.1514
     13 C          66.7700   92.2200   14.1398 C.3     1  UNL1        0.1413
     14 C          66.8435   92.9764   12.8465 C.ar    1  UNL1        0.0858
     15 C          66.2477   94.3269   12.5798 C.ar    1  UNL1        0.0530
     16 S          66.5617   94.7002   11.1614 S.2     1  UNL1       -0.0705
     17 C          67.3516   93.5804   10.5513 C.ar    1  UNL1        0.0875
     18 N          67.5258   92.5150   11.5928 N.ar    1  UNL1       -0.2453
     19 C          67.8754   93.5341    9.1465 C.3     1  UNL1        0.0465
     20 C          67.6067   94.6729    8.2081 C.3     1  UNL1        0.0069
     21 C          68.6678   92.3489    8.6802 C.3     1  UNL1        0.0069
     22 C          63.0380   91.5415   10.2847 C.3     1  UNL1        0.0461
     23 C          62.1504   90.9191    9.2480 C.3     1  UNL1        0.0708
     24 C          60.1102   89.4124    8.6848 C.3     1  UNL1        0.0859
     25 N          60.8559   90.2799    9.6550 N.3     1  UNL1       -0.2962
     26 H          61.0564   89.7030   10.4719 H       1  UNL1        0.1233
     27 C          62.7341   86.1373   12.6556 C.3     1  UNL1        0.0216
     28 C          63.5422   84.8914   12.4444 C.3     1  UNL1        0.0217
     29 C          64.2992   84.2854   13.5889 C.3     1  UNL1        0.0792
     30 N          64.2983   82.7982   13.7850 N.am    1  UNL1       -0.2720
     31 C          63.0698   82.1108   14.3031 C.2     1  UNL1        0.4019
     32 O          61.8423   82.9104   14.6251 O.2     1  UNL1       -0.2264
     33 H          65.1040   82.2734   13.5737 H       1  UNL1        0.1527
     34 O          63.0689   80.6236   14.4992 O.3     1  UNL1       -0.4291
     35 C          62.3698   79.7373   13.5115 C.3     1  UNL1        0.2447
     36 C          62.6505   79.8808   12.0450 C.ar    1  UNL1        0.0714
     37 C          62.6347   78.7747   11.0320 C.ar    1  UNL1        0.1053
     38 N          62.9708   79.3659    9.6949 N.ar    1  UNL1       -0.2350
     39 C          63.1942   80.8373    9.8817 C.ar    1  UNL1        0.1343
     40 S          62.9963   81.1556   11.3341 S.2     1  UNL1       -0.0652
     41 C          65.0570   85.1665   14.5372 C.3     1  UNL1        0.0460
     42 C          64.3157   86.0916   15.4564 C.ar    1  UNL1       -0.0205
     43 C          64.3422   87.5713   15.2124 C.ar    1  UNL1       -0.0042
     44 C          63.6010   88.4963   16.1315 C.ar    1  UNL1       -0.0003
     45 C          62.8332   87.9416   17.2946 C.ar    1  UNL1       -0.0000
     46 C          62.8067   86.4619   17.5386 C.ar    1  UNL1       -0.0003
     47 C          63.5480   85.5368   16.6195 C.ar    1  UNL1       -0.0042
     48 C          61.1333   86.5116   10.6438 C.3     1  UNL1        0.0459
     49 C          61.3639   85.9514    9.2716 C.ar    1  UNL1       -0.0205
     50 C          60.2527   85.9535    8.2641 C.ar    1  UNL1       -0.0042
     51 C          60.4833   85.3933    6.8919 C.ar    1  UNL1       -0.0003
     52 C          61.8252   84.8310    6.5271 C.ar    1  UNL1       -0.0000
     53 C          62.9366   84.8289    7.5346 C.ar    1  UNL1       -0.0003
     54 C          62.7059   85.3891    8.9069 C.ar    1  UNL1       -0.0042
@<TRIPOS>BOND
     1    24    25    1
     2    25    23    1
     3    23    22    1
     4     6    22    1
     5     6     7    1
     6     7     8   am
     7     8     9    2
     8     8    10   am
     9    10    11    1
    10    10    13    1
    11    13    14    1
    12    14    15   ar
    13    15    16   ar
    14    16    17   ar
    15    17    19    1
    16    19    20    1
    17    19    21    1
    18    17    18   ar
    19     6     2    1
    20     2     3    2
    21     2     4   am
    22     4     1    1
    23     1    27    1
    24    27    28    1
    25    29    28    1
    26    29    41    1
    27    41    42    1
    28    42    43   ar
    29    43    44   ar
    30    44    45   ar
    31    45    46   ar
    32    46    47   ar
    33    29    30    1
    34    30    31   am
    35    31    32    2
    36    31    34    1
    37    34    35    1
    38    35    36    1
    39    36    37   ar
    40    37    38   ar
    41    38    39   ar
    42    39    40   ar
    43     1    48    1
    44    48    49    1
    45    49    50   ar
    46    50    51   ar
    47    51    52   ar
    48    52    53   ar
    49    53    54   ar
    50    18    14   ar
    51    47    42   ar
    52    40    36   ar
    53    54    49   ar
    54    25    26    1
    55     7    12    1
    56     4     5    1
    57    30    33    1
@<TRIPOS>MOLECULE
*****
 54 57 0 0 0
SMALL
GASTEIGER

@<TRIPOS>ATOM
      1 C          61.3541   88.7129   11.6081 C.3     1  UNL1        0.0760
      2 C          62.3671   86.5927   10.4996 C.2     1  UNL1        0.2404
      3 O          62.7356   87.4007    9.2908 O.2     1  UNL1       -0.2733
      4 N          61.6764   87.2488   11.6583 N.am    1  UNL1       -0.3043
      5 H          61.4345   86.7185   12.4517 H       1  UNL1        0.1494
      6 C          62.6894   85.1286   10.5499 C.3     1  UNL1        0.1511
      7 N          62.4924   84.3605   11.8233 N.am    1  UNL1       -0.2824
      8 C          62.9285   82.9280   11.9101 C.2     1  UNL1        0.3046
      9 O          63.5616   82.2634   10.7236 O.2     1  UNL1       -0.2526
     10 N          62.7316   82.1599   13.1834 N.am    1  UNL1       -0.2567
     11 C          63.1678   80.7274   13.2703 C.3     1  UNL1        0.1168
     12 H          62.0769   84.7967   12.6019 H       1  UNL1        0.1514
     13 C          62.0986   82.8245   14.3698 C.3     1  UNL1        0.1413
     14 C          62.7658   84.0037   15.0136 C.ar    1  UNL1        0.0858
     15 C          64.1880   84.4333   14.8070 C.ar    1  UNL1        0.0530
     16 S          64.4291   85.6554   15.6427 S.2     1  UNL1       -0.0705
     17 C          63.1559   85.9810   16.3659 C.ar    1  UNL1        0.0875
     18 N          62.1279   84.9602   15.9770 N.ar    1  UNL1       -0.2453
     19 C          62.9473   87.1264   17.3117 C.3     1  UNL1        0.0465
     20 C          62.6441   86.8603   18.7564 C.3     1  UNL1        0.0069
     21 C          63.0418   88.5378   16.8128 C.3     1  UNL1        0.0069
     22 C          63.2085   84.4325    9.3268 C.3     1  UNL1        0.0461
     23 C          63.1096   85.0980    7.9862 C.3     1  UNL1        0.0708
     24 C          61.6308   84.3698    5.9780 C.3     1  UNL1        0.0859
     25 N          61.7975   85.1305    7.2600 N.3     1  UNL1       -0.2962
     26 H          61.0939   84.7748    7.9071 H       1  UNL1        0.1233
     27 C          62.2883   89.7082   12.2298 C.3     1  UNL1        0.0216
     28 C          63.0694   90.6484   11.3604 C.3     1  UNL1        0.0217
     29 C          64.2681   91.3606   11.9135 C.3     1  UNL1        0.0792
     30 N          64.2157   91.9619   13.2867 N.am    1  UNL1       -0.2720
     31 C          64.5509   91.1247   14.4854 C.2     1  UNL1        0.4019
     32 O          64.9386   89.6862   14.3108 O.2     1  UNL1       -0.2264
     33 H          63.9613   92.9061   13.4013 H       1  UNL1        0.1527
     34 O          64.4985   91.7259   15.8586 O.3     1  UNL1       -0.4291
     35 C          65.5428   92.7148   16.2847 C.3     1  UNL1        0.2447
     36 C          66.9168   92.6597   15.6856 C.ar    1  UNL1        0.0714
     37 C          67.2641   92.9233   14.2503 C.ar    1  UNL1        0.1053
     38 N          68.7468   92.7577   14.0942 N.ar    1  UNL1       -0.2350
     39 C          69.3158   92.3918   15.4329 C.ar    1  UNL1        0.1343
     40 S          68.1849   92.3312   16.4164 S.2     1  UNL1       -0.0652
     41 C          65.5191   91.4716   11.0935 C.3     1  UNL1        0.0460
     42 C          66.0271   92.8208   10.6790 C.ar    1  UNL1       -0.0205
     43 C          67.2475   92.9293    9.8136 C.ar    1  UNL1       -0.0042
     44 C          67.7554   94.2785    9.3993 C.ar    1  UNL1       -0.0003
     45 C          67.0430   95.5191    9.8503 C.ar    1  UNL1       -0.0000
     46 C          65.8227   95.4105   10.7157 C.ar    1  UNL1       -0.0003
     47 C          65.3147   94.0614   11.1301 C.ar    1  UNL1       -0.0042
     48 C          60.0976   89.1817   10.9360 C.3     1  UNL1        0.0459
     49 C          59.7917   88.7496    9.5326 C.ar    1  UNL1       -0.0205
     50 C          59.2514   87.3748    9.2720 C.ar    1  UNL1       -0.0042
     51 C          58.9454   86.9427    7.8686 C.ar    1  UNL1       -0.0003
     52 C          59.1799   87.8854    6.7256 C.ar    1  UNL1       -0.0000
     53 C          59.7203   89.2603    6.9862 C.ar    1  UNL1       -0.0003
     54 C          60.0262   89.6924    8.3896 C.ar    1  UNL1       -0.0042
@<TRIPOS>BOND
     1    24    25    1
     2    25    23    1
     3    23    22    1
     4     6    22    1
     5     6     7    1
     6     7     8   am
     7     8     9    2
     8     8    10   am
     9    10    11    1
    10    10    13    1
    11    13    14    1
    12    14    15   ar
    13    15    16   ar
    14    16    17   ar
    15    17    19    1
    16    19    20    1
    17    19    21    1
    18    17    18   ar
    19     6     2    1
    20     2     3    2
    21     2     4   am
    22     4     1    1
    23     1    27    1
    24    27    28    1
    25    29    28    1
    26    29    41    1
    27    41    42    1
    28    42    43   ar
    29    43    44   ar
    30    44    45   ar
    31    45    46   ar
    32    46    47   ar
    33    29    30    1
    34    30    31   am
    35    31    32    2
    36    31    34    1
    37    34    35    1
    38    35    36    1
    39    36    37   ar
    40    37    38   ar
    41    38    39   ar
    42    39    40   ar
    43     1    48    1
    44    48    49    1
    45    49    50   ar
    46    50    51   ar
    47    51    52   ar
    48    52    53   ar
    49    53    54   ar
    50    18    14   ar
    51    47    42   ar
    52    40    36   ar
    53    54    49   ar
    54    25    26    1
    55     7    12    1
    56     4     5    1
    57    30    33    1
@<TRIPOS>MOLECULE
*****
 54 57 0 0 0
SMALL
GASTEIGER

@<TRIPOS>ATOM
      1 C          62.9184   86.5275   12.4842 C.3     1  UNL1        0.0760
      2 C          64.0656   88.0794   14.2236 C.2     1  UNL1        0.2404
      3 O          64.6730   86.8816   14.8917 O.2     1  UNL1       -0.2733
      4 N          63.1883   87.9024   13.0199 N.am    1  UNL1       -0.3043
      5 H          62.7896   88.6885   12.5814 H       1  UNL1        0.1494
      6 C          64.3355   89.4543   14.7593 C.3     1  UNL1        0.1511
      7 N          65.4241   90.2931   14.1580 N.am    1  UNL1       -0.2824
      8 C          65.7985   91.6011   14.7895 C.2     1  UNL1        0.3046
      9 O          65.0842   92.0704   16.0223 O.2     1  UNL1       -0.2526
     10 N          66.8870   92.4399   14.1883 N.am    1  UNL1       -0.2567
     11 C          67.2614   93.7480   14.8199 C.3     1  UNL1        0.1168
     12 H          65.8929   89.9851   13.3489 H       1  UNL1        0.1514
     13 C          67.6012   91.9706   12.9556 C.3     1  UNL1        0.1413
     14 C          67.4733   92.7417   11.6753 C.ar    1  UNL1        0.0858
     15 C          67.9554   92.2971   10.3263 C.ar    1  UNL1        0.0530
     16 S          67.6209   93.3734    9.3366 S.2     1  UNL1       -0.0705
     17 C          66.9318   94.4832   10.0739 C.ar    1  UNL1        0.0875
     18 N          66.8407   94.0928   11.5193 N.ar    1  UNL1       -0.2453
     19 C          66.4234   95.7594    9.4715 C.3     1  UNL1        0.0465
     20 C          67.1230   96.3616    8.2892 C.3     1  UNL1        0.0069
     21 C          65.2152   96.4333   10.0514 C.3     1  UNL1        0.0069
     22 C          63.5169   89.9904   15.8961 C.3     1  UNL1        0.0461
     23 C          62.5751   89.0857   16.6341 C.3     1  UNL1        0.0708
     24 C          62.6106   86.6103   17.4221 C.3     1  UNL1        0.0859
     25 N          63.1150   88.0181   17.5389 N.3     1  UNL1       -0.2962
     26 H          64.1227   87.9836   17.3849 H       1  UNL1        0.1233
     27 C          61.7971   86.3080   11.5124 C.3     1  UNL1        0.0216
     28 C          60.9690   87.4693   11.0480 C.3     1  UNL1        0.0217
     29 C          60.5354   87.5556    9.6146 C.3     1  UNL1        0.0792
     30 N          60.5611   88.8749    8.9014 N.am    1  UNL1       -0.2720
     31 C          59.5971   89.1422    7.7836 C.2     1  UNL1        0.4019
     32 O          58.6075   88.0901    7.3790 O.2     1  UNL1       -0.2264
     33 H          61.2106   89.5655    9.1669 H       1  UNL1        0.1527
     34 O          59.6228   90.4615    7.0704 O.3     1  UNL1       -0.4291
     35 C          59.0668   90.5745    5.6819 C.3     1  UNL1        0.2447
     36 C          59.7817   91.3986    4.6524 C.ar    1  UNL1        0.0714
     37 C          61.2387   91.3086    4.3075 C.ar    1  UNL1        0.1053
     38 N          61.5227   92.3118    3.2291 N.ar    1  UNL1       -0.2350
     39 C          60.2411   93.0218    2.9074 C.ar    1  UNL1        0.1343
     40 S          59.1651   92.4574    3.7871 S.2     1  UNL1       -0.0652
     41 C          60.0760   86.3226    8.8944 C.3     1  UNL1        0.0460
     42 C          61.0042   85.6144    7.9526 C.ar    1  UNL1       -0.0205
     43 C          60.4748   85.0267    6.6782 C.ar    1  UNL1       -0.0042
     44 C          61.4030   84.3186    5.7364 C.ar    1  UNL1       -0.0003
     45 C          62.8607   84.1983    6.0690 C.ar    1  UNL1       -0.0000
     46 C          63.3902   84.7860    7.3434 C.ar    1  UNL1       -0.0003
     47 C          62.4620   85.4941    8.2852 C.ar    1  UNL1       -0.0042
     48 C          63.7698   85.3721   12.9205 C.3     1  UNL1        0.0459
     49 C          63.5305   84.0062   12.3487 C.ar    1  UNL1       -0.0205
     50 C          62.6829   83.0188   13.0947 C.ar    1  UNL1       -0.0042
     51 C          62.4436   81.6529   12.5230 C.ar    1  UNL1       -0.0003
     52 C          63.0518   81.2743   11.2052 C.ar    1  UNL1       -0.0000
     53 C          63.8995   82.2617   10.4591 C.ar    1  UNL1       -0.0003
     54 C          64.1388   83.6276   11.0308 C.ar    1  UNL1       -0.0042
@<TRIPOS>BOND
     1    24    25    1
     2    25    23    1
     3    23    22    1
     4     6    22    1
     5     6     7    1
     6     7     8   am
     7     8     9    2
     8     8    10   am
     9    10    11    1
    10    10    13    1
    11    13    14    1
    12    14    15   ar
    13    15    16   ar
    14    16    17   ar
    15    17    19    1
    16    19    20    1
    17    19    21    1
    18    17    18   ar
    19     6     2    1
    20     2     3    2
    21     2     4   am
    22     4     1    1
    23     1    27    1
    24    27    28    1
    25    29    28    1
    26    29    41    1
    27    41    42    1
    28    42    43   ar
    29    43    44   ar
    30    44    45   ar
    31    45    46   ar
    32    46    47   ar
    33    29    30    1
    34    30    31   am
    35    31    32    2
    36    31    34    1
    37    34    35    1
    38    35    36    1
    39    36    37   ar
    40    37    38   ar
    41    38    39   ar
    42    39    40   ar
    43     1    48    1
    44    48    49    1
    45    49    50   ar
    46    50    51   ar
    47    51    52   ar
    48    52    53   ar
    49    53    54   ar
    50    18    14   ar
    51    47    42   ar
    52    40    36   ar
    53    54    49   ar
    54    25    26    1
    55     7    12    1
    56     4     5    1
    57    30    33    1
@<TRIPOS>MOLECULE
*****
 54 57 0 0 0
SMALL
GASTEIGER

@<TRIPOS>ATOM
      1 C          63.4375   91.2269   10.8334 C.3     1  UNL1        0.0760
      2 C          61.4751   89.7924    9.9161 C.2     1  UNL1        0.2404
      3 O          61.0397   89.4907   11.3194 O.2     1  UNL1       -0.2733
      4 N          62.6740   90.6606    9.6730 N.am    1  UNL1       -0.3043
      5 H          62.9598   90.8586    8.7520 H       1  UNL1        0.1494
      6 C          60.7116   89.2261    8.7558 C.3     1  UNL1        0.1511
      7 N          60.1275   90.1437    7.7228 N.am    1  UNL1       -0.2824
      8 C          58.9020   89.7327    6.9616 C.2     1  UNL1        0.3046
      9 O          58.2607   88.4042    7.2335 O.2     1  UNL1       -0.2526
     10 N          58.3179   90.6501    5.9286 N.am    1  UNL1       -0.2567
     11 C          57.0925   90.2392    5.1675 C.3     1  UNL1        0.1168
     12 H          60.5484   91.0156    7.5443 H       1  UNL1        0.1514
     13 C          58.9593   91.9785    5.6568 C.3     1  UNL1        0.1413
     14 C          59.9121   92.1304    4.5083 C.ar    1  UNL1        0.0858
     15 C          59.6109   92.7867    3.1936 C.ar    1  UNL1        0.0530
     16 S          60.8461   92.7145    2.3456 S.2     1  UNL1       -0.0705
     17 C          61.9108   92.0135    3.1362 C.ar    1  UNL1        0.0875
     18 N          61.3336   91.6525    4.4728 N.ar    1  UNL1       -0.2453
     19 C          63.3075   91.7243    2.6718 C.3     1  UNL1        0.0465
     20 C          64.0210   90.4981    3.1590 C.3     1  UNL1        0.0069
     21 C          63.9905   92.6613    1.7202 C.3     1  UNL1        0.0069
     22 C          60.5322   87.7424    8.6284 C.3     1  UNL1        0.0461
     23 C          61.5099   86.8100    9.2801 C.3     1  UNL1        0.0708
     24 C          62.3342   85.8969   11.5685 C.3     1  UNL1        0.0859
     25 N          61.2114   86.2363   10.6335 N.3     1  UNL1       -0.2962
     26 H          60.6205   86.9131   11.1164 H       1  UNL1        0.1233
     27 C          63.6917   90.3834   12.0474 C.3     1  UNL1        0.0216
     28 C          63.3625   90.9136   13.4113 C.3     1  UNL1        0.0217
     29 C          64.1736   90.4855   14.5984 C.3     1  UNL1        0.0792
     30 N          64.3374   89.0270   14.9081 N.am    1  UNL1       -0.2720
     31 C          63.3640   88.3399   15.8195 C.2     1  UNL1        0.4019
     32 O          62.2269   89.1113   16.4211 O.2     1  UNL1       -0.2264
     33 H          65.0837   88.5207   14.5133 H       1  UNL1        0.1527
     34 O          63.5278   86.8814   16.1293 O.3     1  UNL1       -0.4291
     35 C          64.3764   86.0174   15.2443 C.3     1  UNL1        0.2447
     36 C          63.8613   84.6886   14.7764 C.ar    1  UNL1        0.0714
     37 C          64.5264   83.7866   13.7794 C.ar    1  UNL1        0.1053
     38 N          63.6668   82.5690   13.6101 N.ar    1  UNL1       -0.2350
     39 C          62.4705   82.7185   14.5026 C.ar    1  UNL1        0.1343
     40 S          62.5908   84.0285   15.2234 S.2     1  UNL1       -0.0652
     41 C          64.8207   91.5158   15.4756 C.3     1  UNL1        0.0460
     42 C          66.2431   91.9239   15.2294 C.ar    1  UNL1       -0.0205
     43 C          66.9090   91.5766   13.9309 C.ar    1  UNL1       -0.0042
     44 C          68.3312   91.9847   13.6848 C.ar    1  UNL1       -0.0003
     45 C          69.0876   92.7401   14.7371 C.ar    1  UNL1       -0.0000
     46 C          68.4217   93.0874   16.0355 C.ar    1  UNL1       -0.0003
     47 C          66.9994   92.6793   16.2817 C.ar    1  UNL1       -0.0042
     48 C          63.9469   92.6368   10.7796 C.3     1  UNL1        0.0459
     49 C          65.3737   92.9048   10.4021 C.ar    1  UNL1       -0.0205
     50 C          65.8110   94.2996   10.0655 C.ar    1  UNL1       -0.0042
     51 C          67.2378   94.5676    9.6879 C.ar    1  UNL1       -0.0003
     52 C          68.2272   93.4410    9.6470 C.ar    1  UNL1       -0.0000
     53 C          67.7898   92.0461    9.9836 C.ar    1  UNL1       -0.0003
     54 C          66.3631   91.7781   10.3611 C.ar    1  UNL1       -0.0042
@<TRIPOS>BOND
     1    24    25    1
     2    25    23    1
     3    23    22    1
     4     6    22    1
     5     6     7    1
     6     7     8   am
     7     8     9    2
     8     8    10   am
     9    10    11    1
    10    10    13    1
    11    13    14    1
    12    14    15   ar
    13    15    16   ar
    14    16    17   ar
    15    17    19    1
    16    19    20    1
    17    19    21    1
    18    17    18   ar
    19     6     2    1
    20     2     3    2
    21     2     4   am
    22     4     1    1
    23     1    27    1
    24    27    28    1
    25    29    28    1
    26    29    41    1
    27    41    42    1
    28    42    43   ar
    29    43    44   ar
    30    44    45   ar
    31    45    46   ar
    32    46    47   ar
    33    29    30    1
    34    30    31   am
    35    31    32    2
    36    31    34    1
    37    34    35    1
    38    35    36    1
    39    36    37   ar
    40    37    38   ar
    41    38    39   ar
    42    39    40   ar
    43     1    48    1
    44    48    49    1
    45    49    50   ar
    46    50    51   ar
    47    51    52   ar
    48    52    53   ar
    49    53    54   ar
    50    18    14   ar
    51    47    42   ar
    52    40    36   ar
    53    54    49   ar
    54    25    26    1
    55     7    12    1
    56     4     5    1
    57    30    33    1
@<TRIPOS>MOLECULE
*****
 54 57 0 0 0
SMALL
GASTEIGER

@<TRIPOS>ATOM
      1 C          63.1191   85.6789   12.9170 C.3     1  UNL1        0.0760
      2 C          64.2316   87.5007   14.3982 C.2     1  UNL1        0.2404
      3 O          65.1793   86.4757   14.9471 O.2     1  UNL1       -0.2733
      4 N          63.2015   87.1023   13.3832 N.am    1  UNL1       -0.3043
      5 H          62.5794   87.7750   13.0229 H       1  UNL1        0.1494
      6 C          64.3139   88.9240   14.8644 C.3     1  UNL1        0.1511
      7 N          65.2827   89.8698   14.2186 N.am    1  UNL1       -0.2824
      8 C          65.4468   91.2597   14.7584 C.2     1  UNL1        0.3046
      9 O          64.6421   91.7037   15.9439 O.2     1  UNL1       -0.2526
     10 N          66.4155   92.2055   14.1127 N.am    1  UNL1       -0.2567
     11 C          66.5797   93.5954   14.6525 C.3     1  UNL1        0.1168
     12 H          65.8108   89.5784   13.4405 H       1  UNL1        0.1514
     13 C          67.2201   91.7615   12.9273 C.3     1  UNL1        0.1413
     14 C          67.2618   92.6079   11.6895 C.ar    1  UNL1        0.0858
     15 C          67.8638   92.2153   10.3728 C.ar    1  UNL1        0.0530
     16 S          67.6829   93.3602    9.4208 S.2     1  UNL1       -0.0705
     17 C          66.9691   94.4604   10.1490 C.ar    1  UNL1        0.0875
     18 N          66.7089   93.9954   11.5512 N.ar    1  UNL1       -0.2453
     19 C          66.5833   95.7917    9.5758 C.3     1  UNL1        0.0465
     20 C          66.0103   96.8541   10.4663 C.3     1  UNL1        0.0069
     21 C          66.7705   96.0607    8.1120 C.3     1  UNL1        0.0069
     22 C          63.4275   89.4016   15.9762 C.3     1  UNL1        0.0461
     23 C          63.0775   88.4785   17.1055 C.3     1  UNL1        0.0708
     24 C          62.7052   85.9864   17.7387 C.3     1  UNL1        0.0859
     25 N          62.4554   87.1442   16.8183 N.3     1  UNL1       -0.2962
     26 H          61.4460   87.2890   16.7945 H       1  UNL1        0.1233
     27 C          62.5176   85.3611   11.5802 C.3     1  UNL1        0.0216
     28 C          61.3059   86.1076   11.1065 C.3     1  UNL1        0.0217
     29 C          61.4569   87.2514   10.1478 C.3     1  UNL1        0.0792
     30 N          60.2946   87.6792    9.3017 N.am    1  UNL1       -0.2720
     31 C          60.1071   87.0934    7.9335 C.2     1  UNL1        0.4019
     32 O          61.0818   86.0798    7.4116 O.2     1  UNL1       -0.2264
     33 H          59.6548   88.3445    9.6442 H       1  UNL1        0.1527
     34 O          58.9448   87.5212    7.0874 O.3     1  UNL1       -0.4291
     35 C          58.4148   88.9205    7.1932 C.3     1  UNL1        0.2447
     36 C          58.8134   89.9521    6.1799 C.ar    1  UNL1        0.0714
     37 C          60.2074   90.2183    5.6941 C.ar    1  UNL1        0.1053
     38 N          60.1435   91.3294    4.6884 N.ar    1  UNL1       -0.2350
     39 C          58.7101   91.7499    4.5527 C.ar    1  UNL1        0.1343
     40 S          57.8881   90.8987    5.4745 S.2     1  UNL1       -0.0652
     41 C          62.7702   87.9674   10.0354 C.3     1  UNL1        0.0460
     42 C          62.9435   89.3193   10.6617 C.ar    1  UNL1       -0.0205
     43 C          63.7220   90.3832    9.9462 C.ar    1  UNL1       -0.0042
     44 C          63.8953   91.7351   10.5725 C.ar    1  UNL1       -0.0003
     45 C          63.2900   92.0231   11.9144 C.ar    1  UNL1       -0.0000
     46 C          62.5114   90.9592   12.6299 C.ar    1  UNL1       -0.0003
     47 C          62.3382   89.6074   12.0036 C.ar    1  UNL1       -0.0042
     48 C          63.6384   84.5733   13.7878 C.3     1  UNL1        0.0459
     49 C          63.1161   83.1774   13.6189 C.ar    1  UNL1       -0.0205
     50 C          63.7284   82.2660   12.5970 C.ar    1  UNL1       -0.0042
     51 C          63.2060   80.8701   12.4281 C.ar    1  UNL1       -0.0003
     52 C          62.0714   80.3855   13.2811 C.ar    1  UNL1       -0.0000
     53 C          61.4590   81.2970   14.3031 C.ar    1  UNL1       -0.0003
     54 C          61.9813   82.6929   14.4720 C.ar    1  UNL1       -0.0042
@<TRIPOS>BOND
     1    24    25    1
     2    25    23    1
     3    23    22    1
     4     6    22    1
     5     6     7    1
     6     7     8   am
     7     8     9    2
     8     8    10   am
     9    10    11    1
    10    10    13    1
    11    13    14    1
    12    14    15   ar
    13    15    16   ar
    14    16    17   ar
    15    17    19    1
    16    19    20    1
    17    19    21    1
    18    17    18   ar
    19     6     2    1
    20     2     3    2
    21     2     4   am
    22     4     1    1
    23     1    27    1
    24    27    28    1
    25    29    28    1
    26    29    41    1
    27    41    42    1
    28    42    43   ar
    29    43    44   ar
    30    44    45   ar
    31    45    46   ar
    32    46    47   ar
    33    29    30    1
    34    30    31   am
    35    31    32    2
    36    31    34    1
    37    34    35    1
    38    35    36    1
    39    36    37   ar
    40    37    38   ar
    41    38    39   ar
    42    39    40   ar
    43     1    48    1
    44    48    49    1
    45    49    50   ar
    46    50    51   ar
    47    51    52   ar
    48    52    53   ar
    49    53    54   ar
    50    18    14   ar
    51    47    42   ar
    52    40    36   ar
    53    54    49   ar
    54    25    26    1
    55     7    12    1
    56     4     5    1
    57    30    33    1
@<TRIPOS>MOLECULE
*****
 54 57 0 0 0
SMALL
GASTEIGER

@<TRIPOS>ATOM
      1 C          61.1536   88.8401    9.4456 C.3     1  UNL1        0.0760
      2 C          60.0171   89.3474    7.1650 C.2     1  UNL1        0.2404
      3 O          60.0571   87.8881    6.8204 O.2     1  UNL1       -0.2733
      4 N          60.5653   89.8235    8.4776 N.am    1  UNL1       -0.3043
      5 H          60.5390   90.7813    8.7038 H       1  UNL1        0.1494
      6 C          59.4288   90.3308    6.1970 C.3     1  UNL1        0.1511
      7 N          60.2696   90.8821    5.0838 N.am    1  UNL1       -0.2824
      8 C          59.8463   92.1334    4.3732 C.2     1  UNL1        0.3046
      9 O          58.5822   92.8335    4.7758 O.2     1  UNL1       -0.2526
     10 N          60.6871   92.6848    3.2601 N.am    1  UNL1       -0.2567
     11 C          60.2638   93.9361    2.5495 C.3     1  UNL1        0.1168
     12 H          61.0993   90.4226    4.8196 H       1  UNL1        0.1514
     13 C          61.9512   91.9847    2.8576 C.3     1  UNL1        0.1413
     14 C          62.8490   92.5944    1.8220 C.ar    1  UNL1        0.0858
     15 C          64.2710   93.0237    2.0305 C.ar    1  UNL1        0.0530
     16 S          64.7833   93.5763    0.7335 S.2     1  UNL1       -0.0705
     17 C          63.6778   93.4885   -0.2766 C.ar    1  UNL1        0.0875
     18 N          62.4824   92.8816    0.3961 N.ar    1  UNL1       -0.2453
     19 C          63.7544   93.9301   -1.7081 C.3     1  UNL1        0.0465
     20 C          64.5128   95.1726   -2.0701 C.3     1  UNL1        0.0069
     21 C          63.0726   93.1292   -2.7775 C.3     1  UNL1        0.0069
     22 C          57.9997   90.7628    6.3422 C.3     1  UNL1        0.0461
     23 C          56.8973   89.9030    5.7987 C.3     1  UNL1        0.0708
     24 C          55.7176   91.8860    4.6047 C.3     1  UNL1        0.0859
     25 N          55.6508   90.5362    5.2554 N.3     1  UNL1       -0.2962
     26 H          55.2725   89.8926    4.5604 H       1  UNL1        0.1233
     27 C          62.2557   89.2653   10.3699 C.3     1  UNL1        0.0216
     28 C          61.9710   89.4826   11.8265 C.3     1  UNL1        0.0217
     29 C          63.1025   89.5654   12.8078 C.3     1  UNL1        0.0792
     30 N          63.8709   88.3298   13.1724 N.am    1  UNL1       -0.2720
     31 C          63.9976   87.9224   14.6105 C.2     1  UNL1        0.4019
     32 O          63.3559   88.7507   15.6839 O.2     1  UNL1       -0.2264
     33 H          64.2920   87.7862   12.4678 H       1  UNL1        0.1527
     34 O          64.7659   86.6869   14.9751 O.3     1  UNL1       -0.4291
     35 C          64.1140   85.6127   15.7942 C.3     1  UNL1        0.2447
     36 C          63.6760   84.3345   15.1428 C.ar    1  UNL1        0.0714
     37 C          64.5311   83.4372   14.2980 C.ar    1  UNL1        0.1053
     38 N          63.6895   82.2773   13.8549 N.ar    1  UNL1       -0.2350
     39 C          62.3142   82.4577   14.4258 C.ar    1  UNL1        0.1343
     40 S          62.3058   83.7291   15.2217 S.2     1  UNL1       -0.0652
     41 C          63.4656   90.8836   13.4244 C.3     1  UNL1        0.0460
     42 C          64.8896   91.3546   13.4034 C.ar    1  UNL1       -0.0205
     43 C          65.4175   92.0940   12.2099 C.ar    1  UNL1       -0.0042
     44 C          66.8415   92.5650   12.1889 C.ar    1  UNL1       -0.0003
     45 C          67.7376   92.2965   13.3615 C.ar    1  UNL1       -0.0000
     46 C          67.2097   91.5571   14.5550 C.ar    1  UNL1       -0.0003
     47 C          65.7857   91.0862   14.5760 C.ar    1  UNL1       -0.0042
     48 C          60.6397   87.4315    9.4891 C.3     1  UNL1        0.0459
     49 C          61.5914   86.2923    9.7049 C.ar    1  UNL1       -0.0205
     50 C          62.4169   85.7782    8.5629 C.ar    1  UNL1       -0.0042
     51 C          63.3686   84.6390    8.7786 C.ar    1  UNL1       -0.0003
     52 C          63.4948   84.0140   10.1363 C.ar    1  UNL1       -0.0000
     53 C          62.6692   84.5281   11.2783 C.ar    1  UNL1       -0.0003
     54 C          61.7175   85.6673   11.0626 C.ar    1  UNL1       -0.0042
@<TRIPOS>BOND
     1    24    25    1
     2    25    23    1
     3    23    22    1
     4     6    22    1
     5     6     7    1
     6     7     8   am
     7     8     9    2
     8     8    10   am
     9    10    11    1
    10    10    13    1
    11    13    14    1
    12    14    15   ar
    13    15    16   ar
    14    16    17   ar
    15    17    19    1
    16    19    20    1
    17    19    21    1
    18    17    18   ar
    19     6     2    1
    20     2     3    2
    21     2     4   am
    22     4     1    1
    23     1    27    1
    24    27    28    1
    25    29    28    1
    26    29    41    1
    27    41    42    1
    28    42    43   ar
    29    43    44   ar
    30    44    45   ar
    31    45    46   ar
    32    46    47   ar
    33    29    30    1
    34    30    31   am
    35    31    32    2
    36    31    34    1
    37    34    35    1
    38    35    36    1
    39    36    37   ar
    40    37    38   ar
    41    38    39   ar
    42    39    40   ar
    43     1    48    1
    44    48    49    1
    45    49    50   ar
    46    50    51   ar
    47    51    52   ar
    48    52    53   ar
    49    53    54   ar
    50    18    14   ar
    51    47    42   ar
    52    40    36   ar
    53    54    49   ar
    54    25    26    1
    55     7    12    1
    56     4     5    1
    57    30    33    1
@<TRIPOS>MOLECULE
*****
 54 57 0 0 0
SMALL
GASTEIGER

@<TRIPOS>ATOM
      1 C          63.9556   91.6244   11.4815 C.3     1  UNL1        0.0760
      2 C          61.8212   90.2195   11.0115 C.2     1  UNL1        0.2404
      3 O          62.6383   88.9625   11.0578 O.2     1  UNL1       -0.2733
      4 N          62.4798   91.5505   11.2233 N.am    1  UNL1       -0.3043
      5 H          61.9435   92.3755   11.1930 H       1  UNL1        0.1494
      6 C          60.3454   90.1456   10.7534 C.3     1  UNL1        0.1511
      7 N          59.8280   90.1722    9.3457 N.am    1  UNL1       -0.2824
      8 C          59.9108   88.9411    8.4928 C.2     1  UNL1        0.3046
      9 O          60.5110   87.6833    9.0477 O.2     1  UNL1       -0.2526
     10 N          59.3934   88.9676    7.0851 N.am    1  UNL1       -0.2567
     11 C          59.4762   87.7365    6.2323 C.3     1  UNL1        0.1168
     12 H          59.4340   90.9977    8.9815 H       1  UNL1        0.1514
     13 C          58.7932   90.2253    6.5303 C.3     1  UNL1        0.1413
     14 C          59.4811   90.9564    5.4156 C.ar    1  UNL1        0.0858
     15 C          58.8704   92.0162    4.5473 C.ar    1  UNL1        0.0530
     16 S          59.9123   92.4707    3.5686 S.2     1  UNL1       -0.0705
     17 C          61.1669   91.6917    3.8319 C.ar    1  UNL1        0.0875
     18 N          60.9003   90.7558    4.9734 N.ar    1  UNL1       -0.2453
     19 C          62.4608   91.8252    3.0849 C.3     1  UNL1        0.0465
     20 C          62.6647   92.9695    2.1368 C.3     1  UNL1        0.0069
     21 C          63.5507   90.8145    3.2861 C.3     1  UNL1        0.0069
     22 C          59.3870   90.0451   11.9029 C.3     1  UNL1        0.0461
     23 C          59.2479   88.7534   12.6527 C.3     1  UNL1        0.0708
     24 C          56.7699   88.2653   13.2620 C.3     1  UNL1        0.0859
     25 N          58.1704   88.5974   13.6844 N.3     1  UNL1       -0.2962
     26 H          58.4718   87.8544   14.3149 H       1  UNL1        0.1233
     27 C          64.4774   91.5261   12.8843 C.3     1  UNL1        0.0216
     28 C          63.5577   91.1285   14.0005 C.3     1  UNL1        0.0217
     29 C          64.1120   90.8520   15.3667 C.3     1  UNL1        0.0792
     30 N          63.7997   89.5561   16.0545 N.am    1  UNL1       -0.2720
     31 C          63.8241   88.2713   15.2807 C.2     1  UNL1        0.4019
     32 O          64.1607   88.2825   13.8190 O.2     1  UNL1       -0.2264
     33 H          63.5788   89.5488   17.0139 H       1  UNL1        0.1527
     34 O          63.5118   86.9755   15.9686 O.3     1  UNL1       -0.4291
     35 C          64.3070   85.7450   15.6470 C.3     1  UNL1        0.2447
     36 C          63.6997   84.6561   14.8130 C.ar    1  UNL1        0.0714
     37 C          63.9982   84.3809   13.3690 C.ar    1  UNL1        0.1053
     38 N          63.1702   83.2060   12.9402 N.ar    1  UNL1       -0.2350
     39 C          62.3598   82.7551   14.1192 C.ar    1  UNL1        0.1343
     40 S          62.6870   83.6513   15.2766 S.2     1  UNL1       -0.0652
     41 C          64.9785   91.8713   16.0449 C.3     1  UNL1        0.0460
     42 C          66.3736   92.1174   15.5515 C.ar    1  UNL1       -0.0205
     43 C          67.2908   93.0244   16.3169 C.ar    1  UNL1       -0.0042
     44 C          68.6857   93.2704   15.8235 C.ar    1  UNL1       -0.0003
     45 C          69.1635   92.6093   14.5647 C.ar    1  UNL1       -0.0000
     46 C          68.2464   91.7023   13.7993 C.ar    1  UNL1       -0.0003
     47 C          66.8514   91.4563   14.2927 C.ar    1  UNL1       -0.0042
     48 C          64.9095   91.7966   10.3367 C.3     1  UNL1        0.0459
     49 C          65.7376   93.0428   10.2315 C.ar    1  UNL1       -0.0205
     50 C          65.2111   94.3407   10.7682 C.ar    1  UNL1       -0.0042
     51 C          66.0393   95.5870   10.6630 C.ar    1  UNL1       -0.0003
     52 C          67.3940   95.5353   10.0211 C.ar    1  UNL1       -0.0000
     53 C          67.9206   94.2373    9.4844 C.ar    1  UNL1       -0.0003
     54 C          67.0924   92.9911    9.5896 C.ar    1  UNL1       -0.0042
@<TRIPOS>BOND
     1    24    25    1
     2    25    23    1
     3    23    22    1
     4     6    22    1
     5     6     7    1
     6     7     8   am
     7     8     9    2
     8     8    10   am
     9    10    11    1
    10    10    13    1
    11    13    14    1
    12    14    15   ar
    13    15    16   ar
    14    16    17   ar
    15    17    19    1
    16    19    20    1
    17    19    21    1
    18    17    18   ar
    19     6     2    1
    20     2     3    2
    21     2     4   am
    22     4     1    1
    23     1    27    1
    24    27    28    1
    25    29    28    1
    26    29    41    1
    27    41    42    1
    28    42    43   ar
    29    43    44   ar
    30    44    45   ar
    31    45    46   ar
    32    46    47   ar
    33    29    30    1
    34    30    31   am
    35    31    32    2
    36    31    34    1
    37    34    35    1
    38    35    36    1
    39    36    37   ar
    40    37    38   ar
    41    38    39   ar
    42    39    40   ar
    43     1    48    1
    44    48    49    1
    45    49    50   ar
    46    50    51   ar
    47    51    52   ar
    48    52    53   ar
    49    53    54   ar
    50    18    14   ar
    51    47    42   ar
    52    40    36   ar
    53    54    49   ar
    54    25    26    1
    55     7    12    1
    56     4     5    1
    57    30    33    1
@<TRIPOS>MOLECULE
*****
 54 57 0 0 0
SMALL
GASTEIGER

@<TRIPOS>ATOM
      1 C          62.4306   86.3534   10.6173 C.3     1  UNL1        0.0760
      2 C          61.3854   88.7194   10.8612 C.2     1  UNL1        0.2404
      3 O          60.7307   88.5685    9.5202 O.2     1  UNL1       -0.2733
      4 N          62.2354   87.6119   11.4098 N.am    1  UNL1       -0.3043
      5 H          62.6651   87.7109   12.2900 H       1  UNL1        0.1494
      6 C          61.1902   89.9779   11.6538 C.3     1  UNL1        0.1511
      7 N          62.3680   90.8453   11.9860 N.am    1  UNL1       -0.2824
      8 C          63.2852   91.3144   10.8957 C.2     1  UNL1        0.3046
      9 O          63.0246   90.9160    9.4732 O.2     1  UNL1       -0.2526
     10 N          64.4630   92.1818   11.2279 N.am    1  UNL1       -0.2567
     11 C          65.3802   92.6509   10.1376 C.3     1  UNL1        0.1168
     12 H          62.5390   91.1068   12.9196 H       1  UNL1        0.1514
     13 C          64.7236   92.5801   12.6503 C.3     1  UNL1        0.1413
     14 C          66.1106   92.4853   13.2137 C.ar    1  UNL1        0.0858
     15 C          67.2980   91.8699   12.5344 C.ar    1  UNL1        0.0530
     16 S          68.4749   91.9935   13.4562 S.2     1  UNL1       -0.0705
     17 C          68.0149   92.6854   14.7051 C.ar    1  UNL1        0.0875
     18 N          66.5537   92.9893   14.5552 N.ar    1  UNL1       -0.2453
     19 C          68.8665   93.0153   15.8950 C.3     1  UNL1        0.0465
     20 C          69.2895   91.9290   16.8389 C.3     1  UNL1        0.0069
     21 C          69.2951   94.4316   16.1410 C.3     1  UNL1        0.0069
     22 C          59.8172   90.3689   12.1141 C.3     1  UNL1        0.0461
     23 C          58.6936   89.3772   12.0493 C.3     1  UNL1        0.0708
     24 C          56.8381   88.2202   13.4523 C.3     1  UNL1        0.0859
     25 N          58.2671   88.6452   13.2871 N.3     1  UNL1       -0.2962
     26 H          58.8339   87.7988   13.3387 H       1  UNL1        0.1233
     27 C          62.0499   85.0283   11.2081 C.3     1  UNL1        0.0216
     28 C          62.0480   84.8436   12.6966 C.3     1  UNL1        0.0217
     29 C          63.3437   84.6724   13.4328 C.3     1  UNL1        0.0792
     30 N          63.6892   85.5917   14.5666 N.am    1  UNL1       -0.2720
     31 C          63.1938   85.2944   15.9509 C.2     1  UNL1        0.4019
     32 O          62.3529   84.0778   16.2014 O.2     1  UNL1       -0.2264
     33 H          64.2412   86.3902   14.4022 H       1  UNL1        0.1527
     34 O          63.5394   86.2137   17.0847 O.3     1  UNL1       -0.4291
     35 C          62.8431   87.5357   17.2173 C.3     1  UNL1        0.2447
     36 C          63.3171   88.7161   16.4225 C.ar    1  UNL1        0.0714
     37 C          63.1694   90.1574   16.8110 C.ar    1  UNL1        0.1053
     38 N          63.7832   90.9946   15.7282 N.ar    1  UNL1       -0.2350
     39 C          64.3102   90.0708   14.6705 C.ar    1  UNL1        0.1343
     40 S          64.0221   88.6626   15.0996 S.2     1  UNL1       -0.0652
     41 C          64.2938   83.5819   13.0352 C.3     1  UNL1        0.0460
     42 C          63.7680   82.3084   12.4420 C.ar    1  UNL1       -0.0205
     43 C          63.1620   81.2619   13.3293 C.ar    1  UNL1       -0.0042
     44 C          62.6363   79.9885   12.7361 C.ar    1  UNL1       -0.0003
     45 C          62.7165   79.7616   11.2555 C.ar    1  UNL1       -0.0000
     46 C          63.3225   80.8082   10.3682 C.ar    1  UNL1       -0.0003
     47 C          63.8482   82.0816   10.9614 C.ar    1  UNL1       -0.0042
     48 C          63.0067   86.4201    9.2338 C.3     1  UNL1        0.0459
     49 C          62.3281   85.7045    8.1036 C.ar    1  UNL1       -0.0205
     50 C          63.1304   84.8504    7.1673 C.ar    1  UNL1       -0.0042
     51 C          62.4518   84.1348    6.0370 C.ar    1  UNL1       -0.0003
     52 C          60.9709   84.2733    5.8431 C.ar    1  UNL1       -0.0000
     53 C          60.1685   85.1274    6.7795 C.ar    1  UNL1       -0.0003
     54 C          60.8471   85.8430    7.9097 C.ar    1  UNL1       -0.0042
@<TRIPOS>BOND
     1    24    25    1
     2    25    23    1
     3    23    22    1
     4     6    22    1
     5     6     7    1
     6     7     8   am
     7     8     9    2
     8     8    10   am
     9    10    11    1
    10    10    13    1
    11    13    14    1
    12    14    15   ar
    13    15    16   ar
    14    16    17   ar
    15    17    19    1
    16    19    20    1
    17    19    21    1
    18    17    18   ar
    19     6     2    1
    20     2     3    2
    21     2     4   am
    22     4     1    1
    23     1    27    1
    24    27    28    1
    25    29    28    1
    26    29    41    1
    27    41    42    1
    28    42    43   ar
    29    43    44   ar
    30    44    45   ar
    31    45    46   ar
    32    46    47   ar
    33    29    30    1
    34    30    31   am
    35    31    32    2
    36    31    34    1
    37    34    35    1
    38    35    36    1
    39    36    37   ar
    40    37    38   ar
    41    38    39   ar
    42    39    40   ar
    43     1    48    1
    44    48    49    1
    45    49    50   ar
    46    50    51   ar
    47    51    52   ar
    48    52    53   ar
    49    53    54   ar
    50    18    14   ar
    51    47    42   ar
    52    40    36   ar
    53    54    49   ar
    54    25    26    1
    55     7    12    1
    56     4     5    1
    57    30    33    1
@<TRIPOS>MOLECULE
*****
 54 57 0 0 0
SMALL
GASTEIGER

@<TRIPOS>ATOM
      1 C          63.7084   84.6322   13.3630 C.3     1  UNL1        0.0760
      2 C          64.4289   86.7386   14.7024 C.2     1  UNL1        0.2404
      3 O          65.7532   86.0986   14.9966 O.2     1  UNL1       -0.2733
      4 N          63.4065   86.0054   13.8856 N.am    1  UNL1       -0.3043
      5 H          62.5373   86.4254   13.6926 H       1  UNL1        0.1494
      6 C          64.1269   88.1118   15.2251 C.3     1  UNL1        0.1511
      7 N          65.0162   89.2643   14.8631 N.am    1  UNL1       -0.2824
      8 C          64.8108   90.6020   15.5099 C.2     1  UNL1        0.3046
      9 O          63.7160   90.7872   16.5185 O.2     1  UNL1       -0.2526
     10 N          65.6999   91.7545   15.1480 N.am    1  UNL1       -0.2567
     11 C          65.4945   93.0923   15.7947 C.3     1  UNL1        0.1168
     12 H          65.7347   89.1427   14.2011 H       1  UNL1        0.1514
     13 C          66.7946   91.5693   14.1394 C.3     1  UNL1        0.1413
     14 C          66.6172   92.0754   12.7385 C.ar    1  UNL1        0.0858
     15 C          65.3091   92.3738   12.0678 C.ar    1  UNL1        0.0530
     16 S          65.6002   92.8548   10.6772 S.2     1  UNL1       -0.0705
     17 C          67.0884   92.8537   10.4884 C.ar    1  UNL1        0.0875
     18 N          67.7169   92.3721   11.7623 N.ar    1  UNL1       -0.2453
     19 C          67.8195   93.2625    9.2441 C.3     1  UNL1        0.0465
     20 C          67.5982   94.6253    8.6577 C.3     1  UNL1        0.0069
     21 C          68.7720   92.3086    8.5862 C.3     1  UNL1        0.0069
     22 C          62.9358   88.3325   16.1096 C.3     1  UNL1        0.0461
     23 C          62.7909   87.5506   17.3814 C.3     1  UNL1        0.0708
     24 C          62.2413   85.0531   16.9223 C.3     1  UNL1        0.0859
     25 N          61.8338   86.3975   17.4481 N.3     1  UNL1       -0.2962
     26 H          61.5955   86.2692   18.4315 H       1  UNL1        0.1233
     27 C          63.8854   84.4125   11.8898 C.3     1  UNL1        0.0216
     28 C          62.7040   84.5061   10.9703 C.3     1  UNL1        0.0217
     29 C          62.1504   85.8488   10.5948 C.3     1  UNL1        0.0792
     30 N          60.9932   85.9439    9.6452 N.am    1  UNL1       -0.2720
     31 C          61.1636   85.5356    8.2119 C.2     1  UNL1        0.4019
     32 O          62.4913   85.0321    7.7283 O.2     1  UNL1       -0.2264
     33 H          60.1218   86.2744    9.9626 H       1  UNL1        0.1527
     34 O          60.0064   85.6307    7.2622 O.3     1  UNL1       -0.4291
     35 C          58.9424   86.6657    7.4779 C.3     1  UNL1        0.2447
     36 C          59.2653   88.1205    7.3061 C.ar    1  UNL1        0.0714
     37 C          59.8621   89.0201    8.3475 C.ar    1  UNL1        0.1053
     38 N          60.0137   90.3866    7.7478 N.ar    1  UNL1       -0.2350
     39 C          59.5107   90.3315    6.3357 C.ar    1  UNL1        0.1343
     40 S          59.0481   88.9310    6.0628 S.2     1  UNL1       -0.0652
     41 C          62.7539   87.0962   11.1690 C.3     1  UNL1        0.0460
     42 C          61.9422   88.3553   11.2462 C.ar    1  UNL1       -0.0205
     43 C          60.5488   88.3166   11.7999 C.ar    1  UNL1       -0.0042
     44 C          59.7372   89.5757   11.8771 C.ar    1  UNL1       -0.0003
     45 C          60.3191   90.8734   11.4004 C.ar    1  UNL1       -0.0000
     46 C          61.7126   90.9121   10.8466 C.ar    1  UNL1       -0.0003
     47 C          62.5241   89.6531   10.7695 C.ar    1  UNL1       -0.0042
     48 C          63.8334   83.4786   14.3137 C.3     1  UNL1        0.0459
     49 C          63.0384   82.2275   14.0834 C.ar    1  UNL1       -0.0205
     50 C          63.7039   81.0105   13.5125 C.ar    1  UNL1       -0.0042
     51 C          62.9089   79.7595   13.2822 C.ar    1  UNL1       -0.0003
     52 C          61.4486   79.7254   13.6230 C.ar    1  UNL1       -0.0000
     53 C          60.7831   80.9425   14.1940 C.ar    1  UNL1       -0.0003
     54 C          61.5780   82.1935   14.4242 C.ar    1  UNL1       -0.0042
@<TRIPOS>BOND
     1    24    25    1
     2    25    23    1
     3    23    22    1
     4     6    22    1
     5     6     7    1
     6     7     8   am
     7     8     9    2
     8     8    10   am
     9    10    11    1
    10    10    13    1
    11    13    14    1
    12    14    15   ar
    13    15    16   ar
    14    16    17   ar
    15    17    19    1
    16    19    20    1
    17    19    21    1
    18    17    18   ar
    19     6     2    1
    20     2     3    2
    21     2     4   am
    22     4     1    1
    23     1    27    1
    24    27    28    1
    25    29    28    1
    26    29    41    1
    27    41    42    1
    28    42    43   ar
    29    43    44   ar
    30    44    45   ar
    31    45    46   ar
    32    46    47   ar
    33    29    30    1
    34    30    31   am
    35    31    32    2
    36    31    34    1
    37    34    35    1
    38    35    36    1
    39    36    37   ar
    40    37    38   ar
    41    38    39   ar
    42    39    40   ar
    43     1    48    1
    44    48    49    1
    45    49    50   ar
    46    50    51   ar
    47    51    52   ar
    48    52    53   ar
    49    53    54   ar
    50    18    14   ar
    51    47    42   ar
    52    40    36   ar
    53    54    49   ar
    54    25    26    1
    55     7    12    1
    56     4     5    1
    57    30    33    1
