@<TRIPOS>MOLECULE
*****
 31 36 0 0 0
SMALL
GASTEIGER

@<TRIPOS>ATOM
      1 O          63.1919   90.6061   16.2724 O.2     1  UNL1       -0.2700
      2 C          63.1028   89.3423   15.4694 C.2     1  UNL1        0.2504
      3 N          63.0537   88.2603   16.5071 N.am    1  UNL1       -0.3003
      4 C          62.9732   86.8213   16.9228 C.3     1  UNL1        0.0974
      5 C          62.9519   86.1227   18.2500 C.3     1  UNL1        0.0234
      6 C          63.0415   87.6189   18.1913 C.3     1  UNL1        0.0234
      7 C          62.8798   85.3549   16.6211 C.3     1  UNL1        0.2247
      8 O          62.7947   84.1971   15.6712 O.3     1  UNL1       -0.4587
      9 C          62.7376   83.6130   14.2908 C.ar    1  UNL1        0.2225
     10 N          62.6658   82.2590   14.9322 N.ar    1  UNL1       -0.2080
     11 C          62.5779   81.0286   14.0789 C.ar    1  UNL1        0.1316
     12 C          62.5618   81.1521   12.5840 C.ar    1  UNL1        0.1592
     13 F          62.4739   79.9217   11.7306 F       1  UNL1       -0.2025
     14 C          62.6336   82.5062   11.9426 C.ar    1  UNL1        0.0333
     15 C          62.7215   83.7366   12.7960 C.ar    1  UNL1        0.0536
     16 C          62.7501   84.5395   11.5292 C.3     1  UNL1        0.1309
     17 C          62.6599   83.2443   10.7779 C.3     1  UNL1        0.1665
     18 O          62.6364   83.2475    9.2781 O.3     1  UNL1       -0.3498
     19 C          62.7032   84.5457    8.5297 C.3     1  UNL1        0.1636
     20 C          62.7934   85.8408    9.2809 C.3     1  UNL1        0.1245
     21 N          62.8168   85.8377   10.7808 N.pl3   1  UNL1       -0.2858
     22 C          62.9064   87.3339   10.7221 C.ar    1  UNL1        0.1352
     23 C          63.0059   89.1786    9.9540 C.ar    1  UNL1        0.0551
     24 C          63.0993   90.6028   10.4152 C.ar    1  UNL1        0.1050
     25 N          63.1414   90.9150   11.8819 N.ar    1  UNL1       -0.2104
     26 N          63.2222   91.9758   12.9393 N.ar    1  UNL1       -0.1619
     27 C          63.2024   91.2986   14.2776 C.ar    1  UNL1        0.1281
     28 C          63.1092   89.8194   14.0472 C.ar    1  UNL1        0.1099
     29 C          63.0715   89.5822   12.5667 C.ar    1  UNL1        0.1710
     30 N          62.9983   88.6852   11.3666 N.ar    1  UNL1       -0.2116
     31 H          63.0968   88.7499   17.3601 H       1  UNL1        0.1498
@<TRIPOS>BOND
     1     1     2    2
     2     2     3   am
     3     3     4    1
     4     4     5    1
     5     5     6    1
     6     4     7    1
     7     7     8    1
     8     8     9    1
     9     9    10   ar
    10    10    11   ar
    11    11    12   ar
    12    12    13    1
    13    12    14   ar
    14    14    15   ar
    15    15    16    1
    16    16    17    1
    17    17    18    1
    18    18    19    1
    19    19    20    1
    20    20    21    1
    21    21    22    1
    22    22    23   ar
    23    23    24   ar
    24    24    25   ar
    25    25    26   ar
    26    26    27   ar
    27    27    28   ar
    28    28    29   ar
    29    29    30   ar
    30    28     2    1
    31     6     4    1
    32    15     9   ar
    33    21    16    1
    34    30    22   ar
    35    29    25   ar
    36     3    31    1
@<TRIPOS>MOLECULE
*****
 31 36 0 0 0
SMALL
GASTEIGER

@<TRIPOS>ATOM
      1 O          61.7853   90.3619    9.3561 O.2     1  UNL1       -0.2700
      2 C          62.1048   89.1353   10.1583 C.2     1  UNL1        0.2504
      3 N          61.6717   88.0045    9.2730 N.am    1  UNL1       -0.3003
      4 C          61.4907   86.5457    8.9745 C.3     1  UNL1        0.0974
      5 C          60.9419   85.7849    7.8041 C.3     1  UNL1        0.0234
      6 C          60.9771   87.2841    7.7742 C.3     1  UNL1        0.0234
      7 C          61.6033   85.0930    9.3311 C.3     1  UNL1        0.2247
      8 O          61.9838   83.9794   10.2612 O.3     1  UNL1       -0.4587
      9 C          62.5449   83.4598   11.5517 C.ar    1  UNL1        0.2225
     10 N          62.2720   82.0754   11.0427 N.ar    1  UNL1       -0.2080
     11 C          62.6124   80.8846   11.8888 C.ar    1  UNL1        0.1316
     12 C          63.2256   81.0781   13.2440 C.ar    1  UNL1        0.1592
     13 F          63.5660   79.8873   14.0903 F       1  UNL1       -0.2025
     14 C          63.4984   82.4625   13.7530 C.ar    1  UNL1        0.0333
     15 C          63.1580   83.6533   12.9068 C.ar    1  UNL1        0.0536
     16 C          63.6829   84.5156   14.0163 C.3     1  UNL1        0.1309
     17 C          63.9810   83.2553   14.7732 C.3     1  UNL1        0.1665
     18 O          64.5953   83.3287   16.1396 O.3     1  UNL1       -0.3498
     19 C          64.9116   84.6622   16.7492 C.3     1  UNL1        0.1636
     20 C          64.6135   85.9225   15.9924 C.3     1  UNL1        0.1245
     21 N          63.9992   85.8492   14.6259 N.pl3   1  UNL1       -0.2858
     22 C          64.0344   87.3485   14.5960 C.ar    1  UNL1        0.1352
     23 C          64.3627   89.2296   15.1930 C.ar    1  UNL1        0.0551
     24 C          64.1845   90.6326   14.6933 C.ar    1  UNL1        0.1050
     25 N          63.5860   90.8762   13.3395 N.ar    1  UNL1       -0.2104
     26 N          63.1608   91.8878   12.3169 N.ar    1  UNL1       -0.1619
     27 C          62.6076   91.1479   11.1352 C.ar    1  UNL1        0.1281
     28 C          62.6909   89.6790   11.4275 C.ar    1  UNL1        0.1099
     29 C          63.2956   89.5111   12.7898 C.ar    1  UNL1        0.1710
     30 N          63.7805   88.6700   13.9334 N.ar    1  UNL1       -0.2116
     31 H          61.3260   88.4543    8.4685 H       1  UNL1        0.1498
@<TRIPOS>BOND
     1     1     2    2
     2     2     3   am
     3     3     4    1
     4     4     5    1
     5     5     6    1
     6     4     7    1
     7     7     8    1
     8     8     9    1
     9     9    10   ar
    10    10    11   ar
    11    11    12   ar
    12    12    13    1
    13    12    14   ar
    14    14    15   ar
    15    15    16    1
    16    16    17    1
    17    17    18    1
    18    18    19    1
    19    19    20    1
    20    20    21    1
    21    21    22    1
    22    22    23   ar
    23    23    24   ar
    24    24    25   ar
    25    25    26   ar
    26    26    27   ar
    27    27    28   ar
    28    28    29   ar
    29    29    30   ar
    30    28     2    1
    31     6     4    1
    32    15     9   ar
    33    21    16    1
    34    30    22   ar
    35    29    25   ar
    36     3    31    1
@<TRIPOS>MOLECULE
*****
 31 36 0 0 0
SMALL
GASTEIGER

@<TRIPOS>ATOM
      1 O          73.5644   77.9819   17.6632 O.2     1  UNL1       -0.2700
      2 C          73.5715   76.7214   16.8502 C.2     1  UNL1        0.2504
      3 N          73.5823   75.6304   17.8796 N.am    1  UNL1       -0.3003
      4 C          73.5941   74.1860   18.2841 C.3     1  UNL1        0.0974
      5 C          73.6028   73.4771   19.6060 C.3     1  UNL1        0.0234
      6 C          73.5916   74.9763   19.5590 C.3     1  UNL1        0.0234
      7 C          73.6040   72.7190   17.9709 C.3     1  UNL1        0.2247
      8 O          73.6100   71.5656   17.0120 O.3     1  UNL1       -0.4587
      9 C          73.6105   70.9900   15.6268 C.ar    1  UNL1        0.2225
     10 N          73.6223   69.6292   16.2577 N.ar    1  UNL1       -0.2080
     11 C          73.6290   68.4024   15.3947 C.ar    1  UNL1        0.1316
     12 C          73.6240   68.5364   13.9007 C.ar    1  UNL1        0.1592
     13 F          73.6307   67.3096   13.0376 F       1  UNL1       -0.2025
     14 C          73.6122   69.8972   13.2697 C.ar    1  UNL1        0.0333
     15 C          73.6055   71.1240   14.1329 C.ar    1  UNL1        0.0536
     16 C          73.5961   71.9369   12.8722 C.3     1  UNL1        0.1309
     17 C          73.6036   70.6446   12.1106 C.3     1  UNL1        0.1665
     18 O          73.5995   70.6580   10.6108 O.3     1  UNL1       -0.3498
     19 C          73.5879   71.9637    9.8724 C.3     1  UNL1        0.1636
     20 C          73.5804   73.2559   10.6339 C.3     1  UNL1        0.1245
     21 N          73.5845   73.2426   12.1338 N.pl3   1  UNL1       -0.2858
     22 C          73.5733   74.7418   12.0868 C.ar    1  UNL1        0.1352
     23 C          73.5576   76.5950   11.3331 C.ar    1  UNL1        0.0551
     24 C          73.5483   78.0186   11.8054 C.ar    1  UNL1        0.1050
     25 N          73.5500   78.3213   13.2747 N.ar    1  UNL1       -0.2104
     26 N          73.5451   79.3768   14.3405 N.ar    1  UNL1       -0.1619
     27 C          73.5538   78.6893   15.6736 C.ar    1  UNL1        0.1281
     28 C          73.5641   77.2090   15.4317 C.ar    1  UNL1        0.1099
     29 C          73.5618   76.9815   13.9491 C.ar    1  UNL1        0.1710
     30 N          73.5651   76.0911   12.7419 N.ar    1  UNL1       -0.2116
     31 H          73.5810   76.1150   18.7366 H       1  UNL1        0.1498
@<TRIPOS>BOND
     1     1     2    2
     2     2     3   am
     3     3     4    1
     4     4     5    1
     5     5     6    1
     6     4     7    1
     7     7     8    1
     8     8     9    1
     9     9    10   ar
    10    10    11   ar
    11    11    12   ar
    12    12    13    1
    13    12    14   ar
    14    14    15   ar
    15    15    16    1
    16    16    17    1
    17    17    18    1
    18    18    19    1
    19    19    20    1
    20    20    21    1
    21    21    22    1
    22    22    23   ar
    23    23    24   ar
    24    24    25   ar
    25    25    26   ar
    26    26    27   ar
    27    27    28   ar
    28    28    29   ar
    29    29    30   ar
    30    28     2    1
    31     6     4    1
    32    15     9   ar
    33    21    16    1
    34    30    22   ar
    35    29    25   ar
    36     3    31    1
