@<TRIPOS>MOLECULE
*****
 28 29 0 0 0
SMALL
GASTEIGER

@<TRIPOS>ATOM
      1 C          66.1338   92.9868   14.4148 C.ar    1  UNL1        0.1826
      2 C          65.2336   92.0705   15.1893 C.ar    1  UNL1        0.0947
      3 CL         65.2367   92.1072   16.6889 Cl      1  UNL1       -0.0790
      4 C          64.3303   91.1173   14.4644 C.ar    1  UNL1        0.0192
      5 C          64.3271   91.0805   12.9649 C.ar    1  UNL1        0.0577
      6 C          65.2273   91.9969   12.1903 C.ar    1  UNL1        0.0446
      7 C          66.1306   92.9500   12.9152 C.ar    1  UNL1        0.1730
      8 C          63.4238   90.1274   12.2399 C.2     1  UNL1        0.2496
      9 O          62.7707   89.0004   12.9837 O.2     1  UNL1       -0.2698
     10 N          63.1737   90.3012   10.7712 N.am    1  UNL1       -0.2804
     11 H          63.6023   91.0409   10.2830 H       1  UNL1        0.1552
     12 C          62.2704   89.3481   10.0463 C.ar    1  UNL1        0.0502
     13 C          60.9186   89.8027    9.5811 C.ar    1  UNL1        0.0147
     14 C          60.0153   88.8495    8.8561 C.ar    1  UNL1        0.0021
     15 C          60.4637   87.4418    8.5964 C.ar    1  UNL1        0.0101
     16 C          61.8154   86.9873    9.0615 C.ar    1  UNL1       -0.0195
     17 C          62.2637   85.5797    8.8018 C.3     1  UNL1        0.0311
     18 C          62.7187   87.9405    9.7865 C.ar    1  UNL1        0.0105
     19 C          59.5604   86.4887    7.8714 C.2     1  UNL1        0.0726
     20 O          58.0720   86.6522    7.9592 O.co2   1  UNL1       -0.5446
     21 O          60.1456   85.3720    7.0586 O.co2   1  UNL1       -0.5446
     22 O          67.0371   93.9399   15.1397 O.3     1  UNL1       -0.4715
     23 C          68.7673   92.3510   16.2495 C.3     1  UNL1        0.0512
     24 C          68.4616   93.5601   15.4160 C.3     1  UNL1        0.2057
     25 O          67.0308   93.8664   12.1406 O.3     1  UNL1       -0.4761
     26 C          66.6850   94.2413   10.7300 C.3     1  UNL1        0.1663
     27 C          67.3413   93.5316    9.5830 C.3     1  UNL1        0.0472
     28 C          65.6829   95.3259   10.4663 C.3     1  UNL1        0.0472
@<TRIPOS>UNITY_ATOM_ATTR
20 1
charge -1
@<TRIPOS>BOND
     1    23    24    1
     2    24    22    1
     3    22     1    1
     4     1     2   ar
     5     2     3    1
     6     2     4   ar
     7     4     5   ar
     8     5     8    1
     9     8     9    2
    10     8    10   am
    11    10    12    1
    12    12    13   ar
    13    13    14   ar
    14    14    15   ar
    15    15    19    1
    16    19    20   ar
    17    19    21   ar
    18    15    16   ar
    19    16    17    1
    20    16    18   ar
    21     5     6   ar
    22     6     7   ar
    23     7    25    1
    24    25    26    1
    25    26    27    1
    26    26    28    1
    27     7     1   ar
    28    18    12   ar
    29    10    11    1
@<TRIPOS>MOLECULE
*****
 28 29 0 0 0
SMALL
GASTEIGER

@<TRIPOS>ATOM
      1 C          64.6724   91.8428   12.7708 C.ar    1  UNL1        0.1826
      2 C          63.8740   90.9968   11.8240 C.ar    1  UNL1        0.0947
      3 CL         63.3811   91.5781   10.5319 Cl      1  UNL1       -0.0790
      4 C          63.5683   89.5694   12.1691 C.ar    1  UNL1        0.0192
      5 C          64.0611   88.9881   13.4610 C.ar    1  UNL1        0.0577
      6 C          64.8595   89.8341   14.4078 C.ar    1  UNL1        0.0446
      7 C          65.1652   91.2615   14.0627 C.ar    1  UNL1        0.1730
      8 C          63.7554   87.5607   13.8061 C.2     1  UNL1        0.2496
      9 O          63.8737   87.0903   15.2255 O.2     1  UNL1       -0.2698
     10 N          63.3314   86.6036   12.7318 N.am    1  UNL1       -0.2804
     11 H          63.2538   86.9122   11.8001 H       1  UNL1        0.1552
     12 C          63.0257   85.1762   13.0769 C.ar    1  UNL1        0.0502
     13 C          62.6080   84.8147   14.4715 C.ar    1  UNL1        0.0147
     14 C          62.3023   83.3873   14.8166 C.ar    1  UNL1        0.0021
     15 C          62.4144   82.3214   13.7671 C.ar    1  UNL1        0.0101
     16 C          62.8321   82.6829   12.3725 C.ar    1  UNL1       -0.0195
     17 C          62.9442   81.6171   11.3231 C.3     1  UNL1        0.0311
     18 C          63.1378   84.1103   12.0274 C.ar    1  UNL1        0.0105
     19 C          62.1087   80.8940   14.1122 C.2     1  UNL1        0.0726
     20 O          63.2246   79.9443   14.4326 O.co2   1  UNL1       -0.5446
     21 O          60.6869   80.4163   14.1368 O.co2   1  UNL1       -0.5446
     22 O          64.9781   93.2702   12.4257 O.3     1  UNL1       -0.4715
     23 C          66.6913   92.8439   10.5196 C.3     1  UNL1        0.0512
     24 C          66.2625   93.6157   11.7323 C.3     1  UNL1        0.2057
     25 O          65.9638   92.1076   15.0097 O.3     1  UNL1       -0.4761
     26 C          67.4625   92.0536   14.9821 C.3     1  UNL1        0.1663
     27 C          68.1764   91.6789   13.7172 C.3     1  UNL1        0.0472
     28 C          68.2475   92.3743   16.2195 C.3     1  UNL1        0.0472
@<TRIPOS>UNITY_ATOM_ATTR
20 1
charge -1
@<TRIPOS>BOND
     1    23    24    1
     2    24    22    1
     3    22     1    1
     4     1     2   ar
     5     2     3    1
     6     2     4   ar
     7     4     5   ar
     8     5     8    1
     9     8     9    2
    10     8    10   am
    11    10    12    1
    12    12    13   ar
    13    13    14   ar
    14    14    15   ar
    15    15    19    1
    16    19    20   ar
    17    19    21   ar
    18    15    16   ar
    19    16    17    1
    20    16    18   ar
    21     5     6   ar
    22     6     7   ar
    23     7    25    1
    24    25    26    1
    25    26    27    1
    26    26    28    1
    27     7     1   ar
    28    18    12   ar
    29    10    11    1
@<TRIPOS>MOLECULE
*****
 28 29 0 0 0
SMALL
GASTEIGER

@<TRIPOS>ATOM
      1 C          65.1660   92.3131   13.8739 C.ar    1  UNL1        0.1826
      2 C          64.9989   91.4758   15.1071 C.ar    1  UNL1        0.0947
      3 CL         65.3174   92.0531   16.4545 Cl      1  UNL1       -0.0790
      4 C          64.5133   90.0611   14.9931 C.ar    1  UNL1        0.0192
      5 C          64.1948   89.4838   13.6459 C.ar    1  UNL1        0.0577
      6 C          64.3619   90.3211   12.4126 C.ar    1  UNL1        0.0446
      7 C          64.8474   91.7357   12.5266 C.ar    1  UNL1        0.1730
      8 C          63.7092   88.0691   13.5318 C.2     1  UNL1        0.2496
      9 O          62.7959   87.6779   12.4081 O.2     1  UNL1       -0.2698
     10 N          64.1370   87.0457   14.5416 N.am    1  UNL1       -0.2804
     11 H          64.7364   87.3024   15.2791 H       1  UNL1        0.1552
     12 C          63.6514   85.6310   14.4276 C.ar    1  UNL1        0.0502
     13 C          63.0901   84.9315   15.6300 C.ar    1  UNL1        0.0147
     14 C          62.6046   83.5169   15.5160 C.ar    1  UNL1        0.0021
     15 C          62.6802   82.8018   14.1996 C.ar    1  UNL1        0.0101
     16 C          63.2415   83.5013   12.9972 C.ar    1  UNL1       -0.0195
     17 C          63.3171   82.7861   11.6809 C.3     1  UNL1        0.0311
     18 C          63.7270   84.9159   13.1112 C.ar    1  UNL1        0.0105
     19 C          62.1947   81.3871   14.0856 C.2     1  UNL1        0.0726
     20 O          63.1770   80.2536   14.0984 O.co2   1  UNL1       -0.5446
     21 O          60.7267   81.1060   13.9587 O.co2   1  UNL1       -0.5446
     22 O          65.6515   93.7277   13.9879 O.3     1  UNL1       -0.4715
     23 C          68.0406   92.8685   14.5392 C.3     1  UNL1        0.0512
     24 C          67.0730   94.0035   14.3795 C.3     1  UNL1        0.2057
     25 O          65.0145   92.5730   11.2932 O.3     1  UNL1       -0.4761
     26 C          66.3771   93.0566   10.8940 C.3     1  UNL1        0.1663
     27 C          66.5933   94.5047   10.5680 C.3     1  UNL1        0.0472
     28 C          67.5236   92.0920   10.8206 C.3     1  UNL1        0.0472
@<TRIPOS>UNITY_ATOM_ATTR
20 1
charge -1
@<TRIPOS>BOND
     1    23    24    1
     2    24    22    1
     3    22     1    1
     4     1     2   ar
     5     2     3    1
     6     2     4   ar
     7     4     5   ar
     8     5     8    1
     9     8     9    2
    10     8    10   am
    11    10    12    1
    12    12    13   ar
    13    13    14   ar
    14    14    15   ar
    15    15    19    1
    16    19    20   ar
    17    19    21   ar
    18    15    16   ar
    19    16    17    1
    20    16    18   ar
    21     5     6   ar
    22     6     7   ar
    23     7    25    1
    24    25    26    1
    25    26    27    1
    26    26    28    1
    27     7     1   ar
    28    18    12   ar
    29    10    11    1
@<TRIPOS>MOLECULE
*****
 28 29 0 0 0
SMALL
GASTEIGER

@<TRIPOS>ATOM
      1 C          64.1711   91.3374   12.3942 C.ar    1  UNL1        0.1826
      2 C          63.4119   90.7514   11.2409 C.ar    1  UNL1        0.0947
      3 CL         63.0986   91.5969   10.0421 Cl      1  UNL1       -0.0790
      4 C          62.9661   89.3199   11.2863 C.ar    1  UNL1        0.0192
      5 C          63.2794   88.4745   12.4850 C.ar    1  UNL1        0.0577
      6 C          64.0385   89.0605   13.6383 C.ar    1  UNL1        0.0446
      7 C          64.4844   90.4920   13.5929 C.ar    1  UNL1        0.1730
      8 C          62.8335   87.0430   12.5304 C.2     1  UNL1        0.2496
      9 O          61.6941   86.5846   11.6692 O.2     1  UNL1       -0.2698
     10 N          63.5271   86.0698   13.4369 N.am    1  UNL1       -0.2804
     11 H          64.2749   86.3706   14.0022 H       1  UNL1        0.1552
     12 C          63.0813   84.6383   13.4823 C.ar    1  UNL1        0.0502
     13 C          62.4609   84.0853   14.7311 C.ar    1  UNL1        0.0147
     14 C          62.0150   82.6538   14.7765 C.ar    1  UNL1        0.0021
     15 C          62.1896   81.7753   13.5731 C.ar    1  UNL1        0.0101
     16 C          62.8099   82.3284   12.3244 C.ar    1  UNL1       -0.0195
     17 C          62.9845   81.4500   11.1212 C.3     1  UNL1        0.0311
     18 C          63.2558   83.7599   12.2791 C.ar    1  UNL1        0.0105
     19 C          61.7437   80.3439   13.6185 C.2     1  UNL1        0.0726
     20 O          60.3270   80.0107   13.9817 O.co2   1  UNL1       -0.5446
     21 O          62.7147   79.2455   13.3007 O.co2   1  UNL1       -0.5446
     22 O          64.6169   92.7689   12.3488 O.3     1  UNL1       -0.4715
     23 C          66.6367   93.7667   13.6429 C.3     1  UNL1        0.0512
     24 C          66.0777   93.1021   12.4199 C.3     1  UNL1        0.2057
     25 O          65.2435   91.0780   14.7463 O.3     1  UNL1       -0.4761
     26 C          64.5320   91.3979   16.0275 C.3     1  UNL1        0.1663
     27 C          64.9411   92.5946   16.8340 C.3     1  UNL1        0.0472
     28 C          63.4113   90.5210   16.5022 C.3     1  UNL1        0.0472
@<TRIPOS>UNITY_ATOM_ATTR
20 1
charge -1
@<TRIPOS>BOND
     1    23    24    1
     2    24    22    1
     3    22     1    1
     4     1     2   ar
     5     2     3    1
     6     2     4   ar
     7     4     5   ar
     8     5     8    1
     9     8     9    2
    10     8    10   am
    11    10    12    1
    12    12    13   ar
    13    13    14   ar
    14    14    15   ar
    15    15    19    1
    16    19    20   ar
    17    19    21   ar
    18    15    16   ar
    19    16    17    1
    20    16    18   ar
    21     5     6   ar
    22     6     7   ar
    23     7    25    1
    24    25    26    1
    25    26    27    1
    26    26    28    1
    27     7     1   ar
    28    18    12   ar
    29    10    11    1
@<TRIPOS>MOLECULE
*****
 28 29 0 0 0
SMALL
GASTEIGER

@<TRIPOS>ATOM
      1 C          64.3854   91.2824   13.0640 C.ar    1  UNL1        0.1826
      2 C          65.1300   90.6009   14.1736 C.ar    1  UNL1        0.0947
      3 CL         66.1112   91.3742   15.0040 Cl      1  UNL1       -0.0790
      4 C          64.8936   89.1462   14.4527 C.ar    1  UNL1        0.0192
      5 C          63.9126   88.3730   13.6224 C.ar    1  UNL1        0.0577
      6 C          63.1679   89.0544   12.5129 C.ar    1  UNL1        0.0446
      7 C          63.4043   90.5091   12.2337 C.ar    1  UNL1        0.1730
      8 C          63.6761   86.9182   13.9016 C.2     1  UNL1        0.2496
      9 O          64.0619   86.3371   15.2295 O.2     1  UNL1       -0.2698
     10 N          63.0540   86.0447   12.8529 N.am    1  UNL1       -0.2804
     11 H          62.8009   86.4262   11.9813 H       1  UNL1        0.1552
     12 C          62.8176   84.5900   13.1321 C.ar    1  UNL1        0.0502
     13 C          62.3966   84.1481   14.5023 C.ar    1  UNL1        0.0147
     14 C          62.1602   82.6934   14.7815 C.ar    1  UNL1        0.0021
     15 C          62.3448   81.6806   13.6904 C.ar    1  UNL1        0.0101
     16 C          62.7658   82.1226   12.3203 C.ar    1  UNL1       -0.0195
     17 C          62.9504   81.1099   11.2293 C.3     1  UNL1        0.0311
     18 C          63.0022   83.5773   12.0411 C.ar    1  UNL1        0.0105
     19 C          62.1084   80.2259   13.9696 C.2     1  UNL1        0.0726
     20 O          60.7117   79.6788   13.9660 O.co2   1  UNL1       -0.5446
     21 O          63.2687   79.3183   14.2524 O.co2   1  UNL1       -0.5446
     22 O          64.6218   92.7371   12.7849 O.3     1  UNL1       -0.4715
     23 C          65.9012   92.7685   10.5239 C.3     1  UNL1        0.0512
     24 C          65.8065   93.1612   11.9685 C.3     1  UNL1        0.2057
     25 O          62.6596   91.1905   11.1241 O.3     1  UNL1       -0.4761
     26 C          61.4228   90.5617   10.5541 C.3     1  UNL1        0.1663
     27 C          60.0915   90.8048   11.2009 C.3     1  UNL1        0.0472
     28 C          61.5174   89.6896    9.3373 C.3     1  UNL1        0.0472
@<TRIPOS>UNITY_ATOM_ATTR
20 1
charge -1
@<TRIPOS>BOND
     1    23    24    1
     2    24    22    1
     3    22     1    1
     4     1     2   ar
     5     2     3    1
     6     2     4   ar
     7     4     5   ar
     8     5     8    1
     9     8     9    2
    10     8    10   am
    11    10    12    1
    12    12    13   ar
    13    13    14   ar
    14    14    15   ar
    15    15    19    1
    16    19    20   ar
    17    19    21   ar
    18    15    16   ar
    19    16    17    1
    20    16    18   ar
    21     5     6   ar
    22     6     7   ar
    23     7    25    1
    24    25    26    1
    25    26    27    1
    26    26    28    1
    27     7     1   ar
    28    18    12   ar
    29    10    11    1
@<TRIPOS>MOLECULE
*****
 28 29 0 0 0
SMALL
GASTEIGER

@<TRIPOS>ATOM
      1 C          60.5112   87.9758   10.5394 C.ar    1  UNL1        0.1826
      2 C          60.5329   89.4289   10.9109 C.ar    1  UNL1        0.0947
      3 CL         59.4371   90.3395   10.4417 Cl      1  UNL1       -0.0790
      4 C          61.6504   89.9715   11.7516 C.ar    1  UNL1        0.0192
      5 C          62.7462   89.0610   12.2208 C.ar    1  UNL1        0.0577
      6 C          62.7245   87.6079   11.8493 C.ar    1  UNL1        0.0446
      7 C          61.6070   87.0653   11.0086 C.ar    1  UNL1        0.1730
      8 C          63.8637   89.6035   13.0615 C.2     1  UNL1        0.2496
      9 O          64.4999   88.7409   14.1108 O.2     1  UNL1       -0.2698
     10 N          64.3451   91.0088   12.8529 N.am    1  UNL1       -0.2804
     11 H          63.9276   91.5750   12.1642 H       1  UNL1        0.1552
     12 C          65.4626   91.5513   13.6936 C.ar    1  UNL1        0.0502
     13 C          65.1795   92.0737   15.0709 C.ar    1  UNL1        0.0147
     14 C          66.2971   92.6163   15.9116 C.ar    1  UNL1        0.0021
     15 C          67.6977   92.6365   15.3750 C.ar    1  UNL1        0.0101
     16 C          67.9807   92.1141   13.9977 C.ar    1  UNL1       -0.0195
     17 C          69.3813   92.1343   13.4611 C.3     1  UNL1        0.0311
     18 C          66.8632   91.5715   13.1570 C.ar    1  UNL1        0.0105
     19 C          68.8152   93.1790   16.2157 C.2     1  UNL1        0.0726
     20 O          69.7943   92.2413   16.8575 O.co2   1  UNL1       -0.5446
     21 O          68.9536   94.6594   16.4144 O.co2   1  UNL1       -0.5446
     22 O          59.3936   87.4333    9.6987 O.3     1  UNL1       -0.4715
     23 C          59.3627   88.5328    7.3450 C.3     1  UNL1        0.0512
     24 C          59.5584   87.3243    8.2118 C.3     1  UNL1        0.2057
     25 O          61.5853   85.6122   10.6371 O.3     1  UNL1       -0.4761
     26 C          62.6664   85.0446    9.7659 C.3     1  UNL1        0.1663
     27 C          63.5327   83.9310   10.2751 C.3     1  UNL1        0.0472
     28 C          62.8812   85.5907    8.3853 C.3     1  UNL1        0.0472
@<TRIPOS>UNITY_ATOM_ATTR
20 1
charge -1
@<TRIPOS>BOND
     1    23    24    1
     2    24    22    1
     3    22     1    1
     4     1     2   ar
     5     2     3    1
     6     2     4   ar
     7     4     5   ar
     8     5     8    1
     9     8     9    2
    10     8    10   am
    11    10    12    1
    12    12    13   ar
    13    13    14   ar
    14    14    15   ar
    15    15    19    1
    16    19    20   ar
    17    19    21   ar
    18    15    16   ar
    19    16    17    1
    20    16    18   ar
    21     5     6   ar
    22     6     7   ar
    23     7    25    1
    24    25    26    1
    25    26    27    1
    26    26    28    1
    27     7     1   ar
    28    18    12   ar
    29    10    11    1
@<TRIPOS>MOLECULE
*****
 28 29 0 0 0
SMALL
GASTEIGER

@<TRIPOS>ATOM
      1 C          63.3146   85.4577   15.6489 C.ar    1  UNL1        0.1826
      2 C          63.1257   86.5962   16.6069 C.ar    1  UNL1        0.0947
      3 CL         62.5342   86.3455   17.9625 Cl      1  UNL1       -0.0790
      4 C          63.5283   87.9855   16.2096 C.ar    1  UNL1        0.0192
      5 C          64.1197   88.2362   14.8541 C.ar    1  UNL1        0.0577
      6 C          64.3086   87.0976   13.8960 C.ar    1  UNL1        0.0446
      7 C          63.9060   85.7084   14.2934 C.ar    1  UNL1        0.1730
      8 C          64.5223   89.6254   14.4567 C.2     1  UNL1        0.2496
      9 O          64.7589   90.6677   15.5092 O.2     1  UNL1       -0.2698
     10 N          64.6883   89.9724   13.0069 N.am    1  UNL1       -0.2804
     11 H          64.5330   89.2884   12.3162 H       1  UNL1        0.1552
     12 C          65.0908   91.3617   12.6096 C.ar    1  UNL1        0.0502
     13 C          64.7149   91.8939   11.2585 C.ar    1  UNL1        0.0147
     14 C          65.1175   93.2832   10.8611 C.ar    1  UNL1        0.0021
     15 C          65.8960   94.1402   11.8148 C.ar    1  UNL1        0.0101
     16 C          66.2719   93.6079   13.1659 C.ar    1  UNL1       -0.0195
     17 C          67.0504   94.4649   14.1195 C.3     1  UNL1        0.0311
     18 C          65.8693   92.2187   13.5632 C.ar    1  UNL1        0.0105
     19 C          66.2986   95.5294   11.4175 C.2     1  UNL1        0.0726
     20 O          67.3179   95.7346   10.3363 O.co2   1  UNL1       -0.5446
     21 O          65.6818   96.7136   12.1013 O.co2   1  UNL1       -0.5446
     22 O          62.9120   84.0684   16.0462 O.3     1  UNL1       -0.4715
     23 C          62.2738   82.0946   14.4820 C.3     1  UNL1        0.0512
     24 C          61.8845   83.3268   15.2436 C.3     1  UNL1        0.2057
     25 O          64.0949   84.5698   13.3352 O.3     1  UNL1       -0.4761
     26 C          63.2998   84.5193   12.0643 C.3     1  UNL1        0.1663
     27 C          62.2014   85.5128   11.8269 C.3     1  UNL1        0.0472
     28 C          63.6031   83.4754   11.0307 C.3     1  UNL1        0.0472
@<TRIPOS>UNITY_ATOM_ATTR
20 1
charge -1
@<TRIPOS>BOND
     1    23    24    1
     2    24    22    1
     3    22     1    1
     4     1     2   ar
     5     2     3    1
     6     2     4   ar
     7     4     5   ar
     8     5     8    1
     9     8     9    2
    10     8    10   am
    11    10    12    1
    12    12    13   ar
    13    13    14   ar
    14    14    15   ar
    15    15    19    1
    16    19    20   ar
    17    19    21   ar
    18    15    16   ar
    19    16    17    1
    20    16    18   ar
    21     5     6   ar
    22     6     7   ar
    23     7    25    1
    24    25    26    1
    25    26    27    1
    26    26    28    1
    27     7     1   ar
    28    18    12   ar
    29    10    11    1
@<TRIPOS>MOLECULE
*****
 28 29 0 0 0
SMALL
GASTEIGER

@<TRIPOS>ATOM
      1 C          62.8274   82.6241   12.0218 C.ar    1  UNL1        0.1826
      2 C          63.4788   82.5319   13.3698 C.ar    1  UNL1        0.0947
      3 CL         63.7052   81.1911   14.0033 Cl      1  UNL1       -0.0790
      4 C          63.9038   83.7804   14.0844 C.ar    1  UNL1        0.0192
      5 C          63.6775   85.1211   13.4509 C.ar    1  UNL1        0.0577
      6 C          63.0261   85.2132   12.1029 C.ar    1  UNL1        0.0446
      7 C          62.6011   83.9647   11.3884 C.ar    1  UNL1        0.1730
      8 C          64.1025   86.3695   14.1655 C.2     1  UNL1        0.2496
      9 O          65.1758   86.3066   15.2114 O.2     1  UNL1       -0.2698
     10 N          63.4542   87.6810   13.8342 N.am    1  UNL1       -0.2804
     11 H          62.7497   87.7223   13.1477 H       1  UNL1        0.1552
     12 C          63.8792   88.9295   14.5488 C.ar    1  UNL1        0.0502
     13 C          63.3241   89.2422   15.9068 C.ar    1  UNL1        0.0147
     14 C          63.7492   90.4907   16.6214 C.ar    1  UNL1        0.0021
     15 C          64.7292   91.4265   15.9779 C.ar    1  UNL1        0.0101
     16 C          65.2842   91.1137   14.6200 C.ar    1  UNL1       -0.0195
     17 C          66.2642   92.0494   13.9766 C.3     1  UNL1        0.0311
     18 C          64.8592   89.8652   13.9054 C.ar    1  UNL1        0.0105
     19 C          65.1542   92.6750   16.6925 C.2     1  UNL1        0.0726
     20 O          66.6038   93.0581   16.7353 O.co2   1  UNL1       -0.5446
     21 O          64.1296   93.5403   17.3643 O.co2   1  UNL1       -0.5446
     22 O          62.4024   81.3756   11.3072 O.3     1  UNL1       -0.4715
     23 C          62.9676   79.4040    9.7124 C.3     1  UNL1        0.0512
     24 C          63.3168   80.7375   10.3039 C.3     1  UNL1        0.2057
     25 O          61.9497   84.0570   10.0403 O.3     1  UNL1       -0.4761
     26 C          61.9662   85.3537    9.2865 C.3     1  UNL1        0.1663
     27 C          60.9414   86.4077    9.5847 C.3     1  UNL1        0.0472
     28 C          63.0075   85.5965    8.2345 C.3     1  UNL1        0.0472
@<TRIPOS>UNITY_ATOM_ATTR
20 1
charge -1
@<TRIPOS>BOND
     1    23    24    1
     2    24    22    1
     3    22     1    1
     4     1     2   ar
     5     2     3    1
     6     2     4   ar
     7     4     5   ar
     8     5     8    1
     9     8     9    2
    10     8    10   am
    11    10    12    1
    12    12    13   ar
    13    13    14   ar
    14    14    15   ar
    15    15    19    1
    16    19    20   ar
    17    19    21   ar
    18    15    16   ar
    19    16    17    1
    20    16    18   ar
    21     5     6   ar
    22     6     7   ar
    23     7    25    1
    24    25    26    1
    25    26    27    1
    26    26    28    1
    27     7     1   ar
    28    18    12   ar
    29    10    11    1
@<TRIPOS>MOLECULE
*****
 28 29 0 0 0
SMALL
GASTEIGER

@<TRIPOS>ATOM
      1 C          63.0527   85.0522   14.8202 C.ar    1  UNL1        0.1826
      2 C          63.5034   86.1270   15.7644 C.ar    1  UNL1        0.0947
      3 CL         63.6021   85.8416   17.2337 Cl      1  UNL1       -0.0790
      4 C          63.8555   87.4873   15.2393 C.ar    1  UNL1        0.0192
      5 C          63.7568   87.7728   13.7701 C.ar    1  UNL1        0.0577
      6 C          63.3060   86.6980   12.8259 C.ar    1  UNL1        0.0446
      7 C          62.9540   85.3377   13.3510 C.ar    1  UNL1        0.1730
      8 C          64.1088   89.1331   13.2450 C.2     1  UNL1        0.2496
      9 O          63.5156   89.6155   11.9546 O.2     1  UNL1       -0.2698
     10 N          65.0540   90.0109   14.0104 N.am    1  UNL1       -0.2804
     11 H          65.4434   89.6943   14.8574 H       1  UNL1        0.1552
     12 C          65.4061   91.3712   13.4854 C.ar    1  UNL1        0.0502
     13 C          66.0888   92.3657   14.3770 C.ar    1  UNL1        0.0147
     14 C          66.4409   93.7260   13.8519 C.ar    1  UNL1        0.0021
     15 C          66.1102   94.0918   12.4353 C.ar    1  UNL1        0.0101
     16 C          65.4275   93.0973   11.5437 C.ar    1  UNL1       -0.0195
     17 C          65.0968   93.4631   10.1271 C.3     1  UNL1        0.0311
     18 C          65.0754   91.7370   12.0688 C.ar    1  UNL1        0.0105
     19 C          66.4622   95.4521   11.9102 C.2     1  UNL1        0.0726
     20 O          66.0234   96.6793   12.6527 O.co2   1  UNL1       -0.5446
     21 O          67.2531   95.5851   10.6426 O.co2   1  UNL1       -0.5446
     22 O          62.7006   83.6919   15.3453 O.3     1  UNL1       -0.4715
     23 C          62.0872   81.4657   14.1546 C.3     1  UNL1        0.0512
     24 C          63.1177   82.4652   14.5895 C.3     1  UNL1        0.2057
     25 O          62.5032   84.2628   12.4067 O.3     1  UNL1       -0.4761
     26 C          63.2378   84.0403   11.1179 C.3     1  UNL1        0.1663
     27 C          62.8638   84.8261    9.8962 C.3     1  UNL1        0.0472
     28 C          64.3464   83.0320   11.0509 C.3     1  UNL1        0.0472
@<TRIPOS>UNITY_ATOM_ATTR
20 1
charge -1
@<TRIPOS>BOND
     1    23    24    1
     2    24    22    1
     3    22     1    1
     4     1     2   ar
     5     2     3    1
     6     2     4   ar
     7     4     5   ar
     8     5     8    1
     9     8     9    2
    10     8    10   am
    11    10    12    1
    12    12    13   ar
    13    13    14   ar
    14    14    15   ar
    15    15    19    1
    16    19    20   ar
    17    19    21   ar
    18    15    16   ar
    19    16    17    1
    20    16    18   ar
    21     5     6   ar
    22     6     7   ar
    23     7    25    1
    24    25    26    1
    25    26    27    1
    26    26    28    1
    27     7     1   ar
    28    18    12   ar
    29    10    11    1
